
Build Time: Aug  5 2019 15:47:21 EDT 
Executable Path: C:/PROGRA~1/ANSYSI~1/v195/fluent/ntbin/win64/fluent.exe

-------------------------------------------------------------------------------
ID    Hostname         Core  O.S.         PID    Vendor                     
-------------------------------------------------------------------------------
n3    DESKTOP-AC5R97V  4/4  Windows-x64  9700   Intel(R) Core(TM) i5-7200U 
n2    DESKTOP-AC5R97V  3/4  Windows-x64  11668  Intel(R) Core(TM) i5-7200U 
n1    DESKTOP-AC5R97V  2/4  Windows-x64  1124   Intel(R) Core(TM) i5-7200U 
n0*   DESKTOP-AC5R97V  1/4  Windows-x64  2940   Intel(R) Core(TM) i5-7200U 
host  DESKTOP-AC5R97V       Windows-x64  9636   Intel(R) Core(TM) i5-7200U 

MPI Option Selected: ibmmpi
Selected system interconnect: default
-------------------------------------------------------------------------------
Reading "G:\my works new\Ansys\4th Year Project\Parameteric Model\Acoustic Fire Extinguisher_files\dp1\FFF-1\MECH\FFF-1.1.msh"...
Buffering for file scan...

   16692 nodes, binary.
    3374 nodes, binary.
  110772 mixed interior faces, zone  1, binary.
     205 mixed velocity-inlet faces, zone  5, binary.
     491 mixed wall faces, zone  6, binary.
     842 mixed wall faces, zone  7, binary.
    3656 mixed wall faces, zone  8, binary.
   49082 mixed cells, zone  4, binary.

cpp -I"C:\\PROGRA~1\\ANSYSI~1\\v195\\fluent\\fluent19.5.0/src/main" -I"C:\\PROGRA~1\\ANSYSI~1\\v195\\fluent\\fluent19.5.0/src/addon-wrapper" -I"C:\\PROGRA~1\\ANSYSI~1\\v195\\fluent\\fluent19.5.0/src/io" -I"C:\\PROGRA~1\\ANSYSI~1\\v195\\fluent\\fluent19.5.0/src/species" -I"C:\\PROGRA~1\\ANSYSI~1\\v195\\fluent\\fluent19.5.0/src/pbns" -I"C:\\PROGRA~1\\ANSYSI~1\\v195\\fluent\\fluent19.5.0/src/numerics" -I"C:\\PROGRA~1\\ANSYSI~1\\v195\\fluent\\fluent19.5.0/src/sphysics" -I"C:\\PROGRA~1\\ANSYSI~1\\v195\\fluent\\fluent19.5.0/src/storage" -I"C:\\PROGRA~1\\ANSYSI~1\\v195\\fluent\\fluent19.5.0/src/mphase" -I"C:\\PROGRA~1\\ANSYSI~1\\v195\\fluent\\fluent19.5.0/src/bc" -I"C:\\PROGRA~1\\ANSYSI~1\\v195\\fluent\\fluent19.5.0/src/models" -I"C:\\PROGRA~1\\ANSYSI~1\\v195\\fluent\\fluent19.5.0/src/material" -I"C:\\PROGRA~1\\ANSYSI~1\\v195\\fluent\\fluent19.5.0/src/amg" -I"C:\\PROGRA~1\\ANSYSI~1\\v195\\fluent\\fluent19.5.0/src/util" -I"C:\\PROGRA~1\\ANSYSI~1\\v195\\fluent\\fluent19.5.0/src/mesh" -I"C:\\PROGRA~1\\ANSYSI~1\\v195\\fluent\\fluent19.5.0/src/udf" -I"C:\\PROGRA~1\\ANSYSI~1\\v195\\fluent\\fluent19.5.0/src/ht" -I"C:\\PROGRA~1\\ANSYSI~1\\v195\\fluent\\fluent19.5.0/src/dx" -I"C:\\PROGRA~1\\ANSYSI~1\\v195\\fluent\\fluent19.5.0/src/turbulence" -I"C:\\PROGRA~1\\ANSYSI~1\\v195\\fluent\\fluent19.5.0/src/acoustics" -I"C:\\PROGRA~1\\ANSYSI~1\\v195\\fluent\\fluent19.5.0/src/parallel" -I"C:\\PROGRA~1\\ANSYSI~1\\v195\\fluent\\fluent19.5.0/src/etc" -I"C:\\PROGRA~1\\ANSYSI~1\\v195\\fluent\\fluent19.5.0/src/ue" -I"C:\\PROGRA~1\\ANSYSI~1\\v195\\fluent\\fluent19.5.0/src/dpm" -I"C:\\PROGRA~1\\ANSYSI~1\\v195\\fluent\\fluent19.5.0/src/dbns" -I"C:\\PROGRA~1\\ANSYSI~1\\v195\\fluent\\fluent19.5.0/tgrid/src" -I"C:\\PROGRA~1\\ANSYSI~1\\v195\\fluent\\fluent19.5.0/PRIME/tgrid/src" -I"C:\\PROGRA~1\\ANSYSI~1\\v195\\fluent\\fluent19.5.0/cortex/src" -I"C:\\PROGRA~1\\ANSYSI~1\\v195\\fluent\\fluent19.5.0/client/src" -I"C:\\PROGRA~1\\ANSYSI~1\\v195\\fluent\\fluent19.5.0/multiport/src" -I. -DUDFCONFIG_H="<udfconfig-host.h>" "G:\\my works new\\Ansys\\4th Year Project\\Parameteric Model\\inlet_motion_11_0.c"

cpp -I"C:\\PROGRA~1\\ANSYSI~1\\v195\\fluent\\fluent19.5.0/src/main" -I"C:\\PROGRA~1\\ANSYSI~1\\v195\\fluent\\fluent19.5.0/src/addon-wrapper" -I"C:\\PROGRA~1\\ANSYSI~1\\v195\\fluent\\fluent19.5.0/src/io" -I"C:\\PROGRA~1\\ANSYSI~1\\v195\\fluent\\fluent19.5.0/src/species" -I"C:\\PROGRA~1\\ANSYSI~1\\v195\\fluent\\fluent19.5.0/src/pbns" -I"C:\\PROGRA~1\\ANSYSI~1\\v195\\fluent\\fluent19.5.0/src/numerics" -I"C:\\PROGRA~1\\ANSYSI~1\\v195\\fluent\\fluent19.5.0/src/sphysics" -I"C:\\PROGRA~1\\ANSYSI~1\\v195\\fluent\\fluent19.5.0/src/storage" -I"C:\\PROGRA~1\\ANSYSI~1\\v195\\fluent\\fluent19.5.0/src/mphase" -I"C:\\PROGRA~1\\ANSYSI~1\\v195\\fluent\\fluent19.5.0/src/bc" -I"C:\\PROGRA~1\\ANSYSI~1\\v195\\fluent\\fluent19.5.0/src/models" -I"C:\\PROGRA~1\\ANSYSI~1\\v195\\fluent\\fluent19.5.0/src/material" -I"C:\\PROGRA~1\\ANSYSI~1\\v195\\fluent\\fluent19.5.0/src/amg" -I"C:\\PROGRA~1\\ANSYSI~1\\v195\\fluent\\fluent19.5.0/src/util" -I"C:\\PROGRA~1\\ANSYSI~1\\v195\\fluent\\fluent19.5.0/src/mesh" -I"C:\\PROGRA~1\\ANSYSI~1\\v195\\fluent\\fluent19.5.0/src/udf" -I"C:\\PROGRA~1\\ANSYSI~1\\v195\\fluent\\fluent19.5.0/src/ht" -I"C:\\PROGRA~1\\ANSYSI~1\\v195\\fluent\\fluent19.5.0/src/dx" -I"C:\\PROGRA~1\\ANSYSI~1\\v195\\fluent\\fluent19.5.0/src/turbulence" -I"C:\\PROGRA~1\\ANSYSI~1\\v195\\fluent\\fluent19.5.0/src/acoustics" -I"C:\\PROGRA~1\\ANSYSI~1\\v195\\fluent\\fluent19.5.0/src/parallel" -I"C:\\PROGRA~1\\ANSYSI~1\\v195\\fluent\\fluent19.5.0/src/etc" -I"C:\\PROGRA~1\\ANSYSI~1\\v195\\fluent\\fluent19.5.0/src/ue" -I"C:\\PROGRA~1\\ANSYSI~1\\v195\\fluent\\fluent19.5.0/src/dpm" -I"C:\\PROGRA~1\\ANSYSI~1\\v195\\fluent\\fluent19.5.0/src/dbns" -I"C:\\PROGRA~1\\ANSYSI~1\\v195\\fluent\\fluent19.5.0/tgrid/src" -I"C:\\PROGRA~1\\ANSYSI~1\\v195\\fluent\\fluent19.5.0/PRIME/tgrid/src" -I"C:\\PROGRA~1\\ANSYSI~1\\v195\\fluent\\fluent19.5.0/cortex/src" -I"C:\\PROGRA~1\\ANSYSI~1\\v195\\fluent\\fluent19.5.0/client/src" -I"C:\\PROGRA~1\\ANSYSI~1\\v195\\fluent\\fluent19.5.0/multiport/src" -I. -DUDFCONFIG_H="<C:/Users/LINJO/AppData/Local/Temp/udfconfig-2940-node0.h>" "C:/Users/LINJO/AppData/Local/Temp/inlet_motion_11_0.c.2940.0.c"

cpp -I"C:\\PROGRA~1\\ANSYSI~1\\v195\\fluent\\fluent19.5.0/src/main" -I"C:\\PROGRA~1\\ANSYSI~1\\v195\\fluent\\fluent19.5.0/src/addon-wrapper" -I"C:\\PROGRA~1\\ANSYSI~1\\v195\\fluent\\fluent19.5.0/src/io" -I"C:\\PROGRA~1\\ANSYSI~1\\v195\\fluent\\fluent19.5.0/src/species" -I"C:\\PROGRA~1\\ANSYSI~1\\v195\\fluent\\fluent19.5.0/src/pbns" -I"C:\\PROGRA~1\\ANSYSI~1\\v195\\fluent\\fluent19.5.0/src/numerics" -I"C:\\PROGRA~1\\ANSYSI~1\\v195\\fluent\\fluent19.5.0/src/sphysics" -I"C:\\PROGRA~1\\ANSYSI~1\\v195\\fluent\\fluent19.5.0/src/storage" -I"C:\\PROGRA~1\\ANSYSI~1\\v195\\fluent\\fluent19.5.0/src/mphase" -I"C:\\PROGRA~1\\ANSYSI~1\\v195\\fluent\\fluent19.5.0/src/bc" -I"C:\\PROGRA~1\\ANSYSI~1\\v195\\fluent\\fluent19.5.0/src/models" -I"C:\\PROGRA~1\\ANSYSI~1\\v195\\fluent\\fluent19.5.0/src/material" -I"C:\\PROGRA~1\\ANSYSI~1\\v195\\fluent\\fluent19.5.0/src/amg" -I"C:\\PROGRA~1\\ANSYSI~1\\v195\\fluent\\fluent19.5.0/src/util" -I"C:\\PROGRA~1\\ANSYSI~1\\v195\\fluent\\fluent19.5.0/src/mesh" -I"C:\\PROGRA~1\\ANSYSI~1\\v195\\fluent\\fluent19.5.0/src/udf" -I"C:\\PROGRA~1\\ANSYSI~1\\v195\\fluent\\fluent19.5.0/src/ht" -I"C:\\PROGRA~1\\ANSYSI~1\\v195\\fluent\\fluent19.5.0/src/dx" -I"C:\\PROGRA~1\\ANSYSI~1\\v195\\fluent\\fluent19.5.0/src/turbulence" -I"C:\\PROGRA~1\\ANSYSI~1\\v195\\fluent\\fluent19.5.0/src/acoustics" -I"C:\\PROGRA~1\\ANSYSI~1\\v195\\fluent\\fluent19.5.0/src/parallel" -I"C:\\PROGRA~1\\ANSYSI~1\\v195\\fluent\\fluent19.5.0/src/etc" -I"C:\\PROGRA~1\\ANSYSI~1\\v195\\fluent\\fluent19.5.0/src/ue" -I"C:\\PROGRA~1\\ANSYSI~1\\v195\\fluent\\fluent19.5.0/src/dpm" -I"C:\\PROGRA~1\\ANSYSI~1\\v195\\fluent\\fluent19.5.0/src/dbns" -I"C:\\PROGRA~1\\ANSYSI~1\\v195\\fluent\\fluent19.5.0/tgrid/src" -I"C:\\PROGRA~1\\ANSYSI~1\\v195\\fluent\\fluent19.5.0/PRIME/tgrid/src" -I"C:\\PROGRA~1\\ANSYSI~1\\v195\\fluent\\fluent19.5.0/cortex/src" -I"C:\\PROGRA~1\\ANSYSI~1\\v195\\fluent\\fluent19.5.0/client/src" -I"C:\\PROGRA~1\\ANSYSI~1\\v195\\fluent\\fluent19.5.0/multiport/src" -I. -DUDFCONFIG_H="<C:/Users/LINJO/AppData/Local/Temp/udfconfig-1124-node1.h>" "C:/Users/LINJO/AppData/Local/Temp/inlet_motion_11_0.c.1124.1.c"

cpp -I"C:\\PROGRA~1\\ANSYSI~1\\v195\\fluent\\fluent19.5.0/src/main" -I"C:\\PROGRA~1\\ANSYSI~1\\v195\\fluent\\fluent19.5.0/src/addon-wrapper" -I"C:\\PROGRA~1\\ANSYSI~1\\v195\\fluent\\fluent19.5.0/src/io" -I"C:\\PROGRA~1\\ANSYSI~1\\v195\\fluent\\fluent19.5.0/src/species" -I"C:\\PROGRA~1\\ANSYSI~1\\v195\\fluent\\fluent19.5.0/src/pbns" -I"C:\\PROGRA~1\\ANSYSI~1\\v195\\fluent\\fluent19.5.0/src/numerics" -I"C:\\PROGRA~1\\ANSYSI~1\\v195\\fluent\\fluent19.5.0/src/sphysics" -I"C:\\PROGRA~1\\ANSYSI~1\\v195\\fluent\\fluent19.5.0/src/storage" -I"C:\\PROGRA~1\\ANSYSI~1\\v195\\fluent\\fluent19.5.0/src/mphase" -I"C:\\PROGRA~1\\ANSYSI~1\\v195\\fluent\\fluent19.5.0/src/bc" -I"C:\\PROGRA~1\\ANSYSI~1\\v195\\fluent\\fluent19.5.0/src/models" -I"C:\\PROGRA~1\\ANSYSI~1\\v195\\fluent\\fluent19.5.0/src/material" -I"C:\\PROGRA~1\\ANSYSI~1\\v195\\fluent\\fluent19.5.0/src/amg" -I"C:\\PROGRA~1\\ANSYSI~1\\v195\\fluent\\fluent19.5.0/src/util" -I"C:\\PROGRA~1\\ANSYSI~1\\v195\\fluent\\fluent19.5.0/src/mesh" -I"C:\\PROGRA~1\\ANSYSI~1\\v195\\fluent\\fluent19.5.0/src/udf" -I"C:\\PROGRA~1\\ANSYSI~1\\v195\\fluent\\fluent19.5.0/src/ht" -I"C:\\PROGRA~1\\ANSYSI~1\\v195\\fluent\\fluent19.5.0/src/dx" -I"C:\\PROGRA~1\\ANSYSI~1\\v195\\fluent\\fluent19.5.0/src/turbulence" -I"C:\\PROGRA~1\\ANSYSI~1\\v195\\fluent\\fluent19.5.0/src/acoustics" -I"C:\\PROGRA~1\\ANSYSI~1\\v195\\fluent\\fluent19.5.0/src/parallel" -I"C:\\PROGRA~1\\ANSYSI~1\\v195\\fluent\\fluent19.5.0/src/etc" -I"C:\\PROGRA~1\\ANSYSI~1\\v195\\fluent\\fluent19.5.0/src/ue" -I"C:\\PROGRA~1\\ANSYSI~1\\v195\\fluent\\fluent19.5.0/src/dpm" -I"C:\\PROGRA~1\\ANSYSI~1\\v195\\fluent\\fluent19.5.0/src/dbns" -I"C:\\PROGRA~1\\ANSYSI~1\\v195\\fluent\\fluent19.5.0/tgrid/src" -I"C:\\PROGRA~1\\ANSYSI~1\\v195\\fluent\\fluent19.5.0/PRIME/tgrid/src" -I"C:\\PROGRA~1\\ANSYSI~1\\v195\\fluent\\fluent19.5.0/cortex/src" -I"C:\\PROGRA~1\\ANSYSI~1\\v195\\fluent\\fluent19.5.0/client/src" -I"C:\\PROGRA~1\\ANSYSI~1\\v195\\fluent\\fluent19.5.0/multiport/src" -I. -DUDFCONFIG_H="<C:/Users/LINJO/AppData/Local/Temp/udfconfig-11668-node2.h>" "C:/Users/LINJO/AppData/Local/Temp/inlet_motion_11_0.c.11668.2.c"

cpp -I"C:\\PROGRA~1\\ANSYSI~1\\v195\\fluent\\fluent19.5.0/src/main" -I"C:\\PROGRA~1\\ANSYSI~1\\v195\\fluent\\fluent19.5.0/src/addon-wrapper" -I"C:\\PROGRA~1\\ANSYSI~1\\v195\\fluent\\fluent19.5.0/src/io" -I"C:\\PROGRA~1\\ANSYSI~1\\v195\\fluent\\fluent19.5.0/src/species" -I"C:\\PROGRA~1\\ANSYSI~1\\v195\\fluent\\fluent19.5.0/src/pbns" -I"C:\\PROGRA~1\\ANSYSI~1\\v195\\fluent\\fluent19.5.0/src/numerics" -I"C:\\PROGRA~1\\ANSYSI~1\\v195\\fluent\\fluent19.5.0/src/sphysics" -I"C:\\PROGRA~1\\ANSYSI~1\\v195\\fluent\\fluent19.5.0/src/storage" -I"C:\\PROGRA~1\\ANSYSI~1\\v195\\fluent\\fluent19.5.0/src/mphase" -I"C:\\PROGRA~1\\ANSYSI~1\\v195\\fluent\\fluent19.5.0/src/bc" -I"C:\\PROGRA~1\\ANSYSI~1\\v195\\fluent\\fluent19.5.0/src/models" -I"C:\\PROGRA~1\\ANSYSI~1\\v195\\fluent\\fluent19.5.0/src/material" -I"C:\\PROGRA~1\\ANSYSI~1\\v195\\fluent\\fluent19.5.0/src/amg" -I"C:\\PROGRA~1\\ANSYSI~1\\v195\\fluent\\fluent19.5.0/src/util" -I"C:\\PROGRA~1\\ANSYSI~1\\v195\\fluent\\fluent19.5.0/src/mesh" -I"C:\\PROGRA~1\\ANSYSI~1\\v195\\fluent\\fluent19.5.0/src/udf" -I"C:\\PROGRA~1\\ANSYSI~1\\v195\\fluent\\fluent19.5.0/src/ht" -I"C:\\PROGRA~1\\ANSYSI~1\\v195\\fluent\\fluent19.5.0/src/dx" -I"C:\\PROGRA~1\\ANSYSI~1\\v195\\fluent\\fluent19.5.0/src/turbulence" -I"C:\\PROGRA~1\\ANSYSI~1\\v195\\fluent\\fluent19.5.0/src/acoustics" -I"C:\\PROGRA~1\\ANSYSI~1\\v195\\fluent\\fluent19.5.0/src/parallel" -I"C:\\PROGRA~1\\ANSYSI~1\\v195\\fluent\\fluent19.5.0/src/etc" -I"C:\\PROGRA~1\\ANSYSI~1\\v195\\fluent\\fluent19.5.0/src/ue" -I"C:\\PROGRA~1\\ANSYSI~1\\v195\\fluent\\fluent19.5.0/src/dpm" -I"C:\\PROGRA~1\\ANSYSI~1\\v195\\fluent\\fluent19.5.0/src/dbns" -I"C:\\PROGRA~1\\ANSYSI~1\\v195\\fluent\\fluent19.5.0/tgrid/src" -I"C:\\PROGRA~1\\ANSYSI~1\\v195\\fluent\\fluent19.5.0/PRIME/tgrid/src" -I"C:\\PROGRA~1\\ANSYSI~1\\v195\\fluent\\fluent19.5.0/cortex/src" -I"C:\\PROGRA~1\\ANSYSI~1\\v195\\fluent\\fluent19.5.0/client/src" -I"C:\\PROGRA~1\\ANSYSI~1\\v195\\fluent\\fluent19.5.0/multiport/src" -I. -DUDFCONFIG_H="<C:/Users/LINJO/AppData/Local/Temp/udfconfig-9700-node3.h>" "C:/Users/LINJO/AppData/Local/Temp/inlet_motion_11_0.c.9700.3.c"

Building...
     mesh
	auto partitioning mesh by Metis (fast),
	distributing mesh
		parts....,
		faces....,
		nodes....,
		cells....,
        bandwidth reduction using Reverse Cuthill-McKee: 5775/440 = 13.125
     materials,
     interface,
     domains,
	mixture
     zones,
	zone0_gauge_pressure
	output
	wall
	inlet
	fluid_domain
	interior-fluid_domainSetting fluid_domain (mixture) ... Done.

Applying mesh operation "Change Zone Type"

Applying mesh operation "Change Zone Type [ 2 ]"

Applying mesh operation "Change Zone Type [ 3 ]"

Applying mesh operation "Change Zone Type [ 4 ]"
 Setting zone id of fluid_domain to 4.
 Setting zone id of output to 7.
 Setting zone id of zone0_gauge_pressure to 8.
 Setting zone id of interior-fluid_domain to 1.
 Setting zone id of inlet to 5.
 Setting zone id of wall to 6.
Done.
Setting fluid_domain (mixture) ... Done.
Setting output (mixture) ... Done.
Setting zone0_gauge_pressure (mixture) ... Done.
Setting interior-fluid_domain (mixture) ... Done.
Setting inlet (mixture) ... Done.
Setting wall (mixture) ... Done.

     parallel,
Done.

Preparing mesh for display...
Done.
"Updating Setup cell..."
"Updating Solution cell..."
Reading G:\\my works new\\Ansys\\4th Year Project\\Parameteric Model\\Acoustic Fire Extinguisher_files\\dp1\\FFF-1\\Fluent\\FFF-1.ip...
Reading IP data ...
	x-coord
	y-coord
	z-coord
	pressure
	x-velocity
	y-velocity
	z-velocity
	k
	epsilon
  Done.
  Initializing values...
  Done.
Writing "| gzip -2cf > FFF-1.1-2.cas.gz"...
Writing temporary file C:\\Users\\LINJO\\AppData\\Local\\Temp\\flntgz-96362 ...
   49082 mixed cells, zone  4, binary.
   49082 cell partition ids, zone  4, 4 partitions, binary.
  110772 mixed interior faces, zone  1, binary.
     205 mixed velocity-inlet faces, zone  5, binary.
     491 mixed wall faces, zone  6, binary.
     842 mixed pressure-outlet faces, zone  7, binary.
    3656 mixed pressure-outlet faces, zone  8, binary.
   20066 nodes, binary.
   20066 node flags, binary.
Done.

Writing "| gzip -2cf > FFF-1.1-2-00000.dat.gz"...
Writing temporary file C:\\Users\\LINJO\\AppData\\Local\\Temp\\flntgz-96363 ...
Done.

Writing "| gzip -2cf > FFF-1.1-Setup-Output.cas.gz"...
Writing temporary file C:\\Users\\LINJO\\AppData\\Local\\Temp\\flntgz-96364 ...
   49082 mixed cells, zone  4, binary.
   49082 cell partition ids, zone  4, 4 partitions, binary.
  110772 mixed interior faces, zone  1, binary.
     205 mixed velocity-inlet faces, zone  5, binary.
     491 mixed wall faces, zone  6, binary.
     842 mixed pressure-outlet faces, zone  7, binary.
    3656 mixed pressure-outlet faces, zone  8, binary.
   20066 nodes, binary.
   20066 node flags, binary.
Done.


Updating solution at time level N...
 done.

  iter  continuity  x-velocity  y-velocity  z-velocity           k     epsilon     time/iter

 Reversed flow on 724 faces (83.0% area) of pressure-outlet 7.

 Reversed flow on 3655 faces (100.0% area) of pressure-outlet 8.
     1  1.0000e+00  8.5977e-03  8.0124e-03  5.8255e-02  5.2217e-02  7.5566e-02  0:00:19   19

 Reversed flow on 723 faces (82.8% area) of pressure-outlet 7.

 Reversed flow on 3656 faces (100.0% area) of pressure-outlet 8.
     2  4.0026e-01  1.6779e-02  1.6065e-02  2.6729e-02  1.4671e-02  2.4303e-02  0:00:14   18

 Reversed flow on 723 faces (82.8% area) of pressure-outlet 7.

 Reversed flow on 3656 faces (100.0% area) of pressure-outlet 8.
     3  2.7897e-01  6.7160e-03  6.3967e-03  1.2475e-02  6.6407e-03  1.2143e-02  0:00:11   17

 Reversed flow on 723 faces (82.8% area) of pressure-outlet 7.

 Reversed flow on 3656 faces (100.0% area) of pressure-outlet 8.
     4  2.0010e-01  3.6323e-03  3.7276e-03  7.4707e-03  3.8350e-03  7.3403e-03  0:00:08   16

 Reversed flow on 723 faces (82.8% area) of pressure-outlet 7.

 Reversed flow on 3656 faces (100.0% area) of pressure-outlet 8.
     5  1.4665e-01  2.3850e-03  2.3539e-03  4.3906e-03  2.2984e-03  4.4515e-03  0:00:06   15

 Reversed flow on 723 faces (82.8% area) of pressure-outlet 7.

 Reversed flow on 3656 faces (100.0% area) of pressure-outlet 8.
     6  1.0305e-01  1.6460e-03  1.5788e-03  2.7049e-03  1.3605e-03  2.5294e-03  0:00:05   14

 Reversed flow on 723 faces (82.8% area) of pressure-outlet 7.

 Reversed flow on 3656 faces (100.0% area) of pressure-outlet 8.
     7  7.8296e-02  1.1324e-03  1.0960e-03  1.8282e-03  8.1331e-04  1.4820e-03  0:00:03   13

 Reversed flow on 723 faces (82.8% area) of pressure-outlet 7.

 Reversed flow on 3656 faces (100.0% area) of pressure-outlet 8.
     8  6.0051e-02  7.9770e-04  7.7371e-04  1.2475e-03  4.9569e-04  8.8808e-04  0:00:05   12

 Reversed flow on 723 faces (82.8% area) of pressure-outlet 7.

 Reversed flow on 3656 faces (100.0% area) of pressure-outlet 8.
     9  4.6097e-02  5.8785e-04  5.6832e-04  9.1085e-04  3.1106e-04  5.4486e-04  0:00:04   11

 Reversed flow on 723 faces (82.8% area) of pressure-outlet 7.

 Reversed flow on 3656 faces (100.0% area) of pressure-outlet 8.
    10  3.5574e-02  4.4681e-04  4.3476e-04  6.8229e-04  2.0264e-04  3.5208e-04  0:00:03   10

 Reversed flow on 723 faces (82.8% area) of pressure-outlet 7.

 Reversed flow on 3656 faces (100.0% area) of pressure-outlet 8.
    11  2.7240e-02  3.3952e-04  3.2744e-04  5.1363e-04  1.3722e-04  2.4419e-04  0:00:02    9

 Reversed flow on 723 faces (82.8% area) of pressure-outlet 7.

 Reversed flow on 3656 faces (100.0% area) of pressure-outlet 8.

  iter  continuity  x-velocity  y-velocity  z-velocity           k     epsilon     time/iter
    12  2.0954e-02  2.6041e-04  2.4952e-04  3.9637e-04  9.5937e-05  1.7781e-04  0:00:01    8

 Reversed flow on 723 faces (82.8% area) of pressure-outlet 7.

 Reversed flow on 3656 faces (100.0% area) of pressure-outlet 8.
    13  1.6316e-02  2.0364e-04  1.9628e-04  3.1499e-04  6.8615e-05  1.3194e-04  0:00:01    7

 Reversed flow on 723 faces (82.8% area) of pressure-outlet 7.

 Reversed flow on 3656 faces (100.0% area) of pressure-outlet 8.
    14  1.2831e-02  1.5882e-04  1.5456e-04  2.5237e-04  4.9390e-05  9.6698e-05  0:00:01    6

 Reversed flow on 723 faces (82.8% area) of pressure-outlet 7.

 Reversed flow on 3656 faces (100.0% area) of pressure-outlet 8.
    15  1.0182e-02  1.2432e-04  1.2038e-04  2.0295e-04  3.5889e-05  7.1284e-05  0:00:00    5

 Reversed flow on 723 faces (82.8% area) of pressure-outlet 7.

 Reversed flow on 3656 faces (100.0% area) of pressure-outlet 8.
    16  8.1260e-03  9.8312e-05  9.5864e-05  1.6641e-04  2.6516e-05  5.3946e-05  0:00:01    4

 Reversed flow on 723 faces (82.8% area) of pressure-outlet 7.

 Reversed flow on 3656 faces (100.0% area) of pressure-outlet 8.
    17  6.5437e-03  7.9536e-05  7.6941e-05  1.3967e-04  1.9800e-05  4.0974e-05  0:00:01    3

 Reversed flow on 723 faces (82.8% area) of pressure-outlet 7.

 Reversed flow on 3656 faces (100.0% area) of pressure-outlet 8.
    18  5.2923e-03  6.4326e-05  6.2389e-05  1.1827e-04  1.4974e-05  3.1427e-05  0:00:00    2

 Reversed flow on 723 faces (82.8% area) of pressure-outlet 7.

 Reversed flow on 3656 faces (100.0% area) of pressure-outlet 8.
    19  4.3035e-03  5.2466e-05  5.1154e-05  1.0196e-04  1.1449e-05  2.4159e-05  0:00:00    1

 Reversed flow on 723 faces (82.8% area) of pressure-outlet 7.

 Reversed flow on 3656 faces (100.0% area) of pressure-outlet 8.
    20  3.5053e-03  4.2903e-05  4.2230e-05  8.9612e-05  8.7337e-06  1.8604e-05  0:00:00    0
Flow time = 0.00111s, time step = 1
89 more time steps

Updating solution at time level N...
 done.

  iter  continuity  x-velocity  y-velocity  z-velocity           k     epsilon     time/iter
    20  3.5053e-03  4.2903e-05  4.2230e-05  8.9612e-05  8.7337e-06  1.8604e-05  0:00:02   20

 Reversed flow on 723 faces (82.8% area) of pressure-outlet 7.

 Reversed flow on 3656 faces (100.0% area) of pressure-outlet 8.
    21  4.0718e-01  6.9210e-03  6.7874e-03  2.5108e-02  2.1495e-02  3.2886e-02  0:00:05   19

 Reversed flow on 723 faces (82.8% area) of pressure-outlet 7.

 Reversed flow on 3656 faces (100.0% area) of pressure-outlet 8.
    22  3.0785e-01  5.3379e-03  5.2426e-03  1.3949e-02  8.7668e-03  1.5182e-02  0:00:04   18

 Reversed flow on 724 faces (83.0% area) of pressure-outlet 7.

 Reversed flow on 3656 faces (100.0% area) of pressure-outlet 8.
    23  2.3740e-01  4.0283e-03  4.0081e-03  8.6282e-03  4.3564e-03  7.9079e-03  0:00:03   17

 Reversed flow on 724 faces (83.0% area) of pressure-outlet 7.

 Reversed flow on 3656 faces (100.0% area) of pressure-outlet 8.
    24  1.9110e-01  3.2068e-03  3.1885e-03  6.1858e-03  2.3522e-03  4.3143e-03  0:00:02   16

 Reversed flow on 724 faces (83.0% area) of pressure-outlet 7.

 Reversed flow on 3656 faces (100.0% area) of pressure-outlet 8.
    25  1.4858e-01  2.3383e-03  2.3154e-03  4.2361e-03  1.3466e-03  2.4462e-03  0:00:02   15

 Reversed flow on 724 faces (83.0% area) of pressure-outlet 7.

 Reversed flow on 3656 faces (100.0% area) of pressure-outlet 8.
    26  1.1620e-01  1.7015e-03  1.6835e-03  2.9624e-03  8.1270e-04  1.4569e-03  0:00:01   14

 Reversed flow on 724 faces (83.0% area) of pressure-outlet 7.

 Reversed flow on 3656 faces (100.0% area) of pressure-outlet 8.
    27  9.0802e-02  1.2505e-03  1.2324e-03  2.1173e-03  5.1256e-04  9.0648e-04  0:00:01   13

 Reversed flow on 724 faces (83.0% area) of pressure-outlet 7.

 Reversed flow on 3656 faces (100.0% area) of pressure-outlet 8.
    28  7.0763e-02  9.3493e-04  9.1423e-04  1.5532e-03  3.3716e-04  5.9011e-04  0:00:03   12

 Reversed flow on 724 faces (83.0% area) of pressure-outlet 7.

 Reversed flow on 3656 faces (100.0% area) of pressure-outlet 8.
    29  5.5125e-02  7.0534e-04  6.8365e-04  1.1517e-03  2.2856e-04  3.9727e-04  0:00:02   11

 Reversed flow on 724 faces (83.0% area) of pressure-outlet 7.

 Reversed flow on 3656 faces (100.0% area) of pressure-outlet 8.
    30  4.3003e-02  5.3594e-04  5.1987e-04  8.6165e-04  1.5904e-04  2.7493e-04  0:00:02   10

 Reversed flow on 724 faces (83.0% area) of pressure-outlet 7.

 Reversed flow on 3656 faces (100.0% area) of pressure-outlet 8.

  iter  continuity  x-velocity  y-velocity  z-velocity           k     epsilon     time/iter
    31  3.3568e-02  4.1103e-04  4.0193e-04  6.4666e-04  1.1220e-04  1.9325e-04  0:00:01    9

 Reversed flow on 724 faces (83.0% area) of pressure-outlet 7.

 Reversed flow on 3656 faces (100.0% area) of pressure-outlet 8.
    32  2.6314e-02  3.1886e-04  3.1348e-04  4.8906e-04  8.0939e-05  1.3946e-04  0:00:01    8

 Reversed flow on 724 faces (83.0% area) of pressure-outlet 7.

 Reversed flow on 3656 faces (100.0% area) of pressure-outlet 8.
    33  2.0691e-02  2.4792e-04  2.4363e-04  3.7281e-04  5.9437e-05  1.0309e-04  0:00:01    7

 Reversed flow on 724 faces (83.0% area) of pressure-outlet 7.

 Reversed flow on 3656 faces (100.0% area) of pressure-outlet 8.
    34  1.6298e-02  1.9335e-04  1.8937e-04  2.8796e-04  4.4185e-05  7.7479e-05  0:00:00    6

 Reversed flow on 724 faces (83.0% area) of pressure-outlet 7.

 Reversed flow on 3656 faces (100.0% area) of pressure-outlet 8.
    35  1.2866e-02  1.5139e-04  1.4807e-04  2.2569e-04  3.3260e-05  5.9109e-05  0:00:01    5

 Reversed flow on 724 faces (83.0% area) of pressure-outlet 7.

 Reversed flow on 3656 faces (100.0% area) of pressure-outlet 8.
    36  1.0169e-02  1.1945e-04  1.1595e-04  1.7832e-04  2.5330e-05  4.5685e-05  0:00:01    4

 Reversed flow on 724 faces (83.0% area) of pressure-outlet 7.

 Reversed flow on 3656 faces (100.0% area) of pressure-outlet 8.
    37  8.0497e-03  9.4848e-05  9.1690e-05  1.4156e-04  1.9411e-05  3.5635e-05  0:00:00    3

 Reversed flow on 724 faces (83.0% area) of pressure-outlet 7.

 Reversed flow on 3656 faces (100.0% area) of pressure-outlet 8.
    38  6.3957e-03  7.5690e-05  7.3195e-05  1.1487e-04  1.5055e-05  2.8189e-05  0:00:00    2

 Reversed flow on 724 faces (83.0% area) of pressure-outlet 7.

 Reversed flow on 3656 faces (100.0% area) of pressure-outlet 8.
    39  5.0969e-03  6.0783e-05  5.9074e-05  9.3822e-05  1.1823e-05  2.2567e-05  0:00:00    1

 Reversed flow on 724 faces (83.0% area) of pressure-outlet 7.

 Reversed flow on 3656 faces (100.0% area) of pressure-outlet 8.
    40  4.0604e-03  4.9220e-05  4.7989e-05  7.4862e-05  9.3348e-06  1.8081e-05  0:00:00    0
Flow time = 0.00222s, time step = 2
88 more time steps

Updating solution at time level N...
 done.

  iter  continuity  x-velocity  y-velocity  z-velocity           k     epsilon     time/iter
    40  4.0604e-03  4.9220e-05  4.7989e-05  7.4862e-05  9.3348e-06  1.8081e-05  0:00:02   20

 Reversed flow on 724 faces (83.0% area) of pressure-outlet 7.

 Reversed flow on 3656 faces (100.0% area) of pressure-outlet 8.
    41  2.1442e-02  3.4959e-03  3.4700e-03  1.0993e-02  1.8286e-02  2.9627e-02  0:00:01   19

 Reversed flow on 724 faces (83.0% area) of pressure-outlet 7.

 Reversed flow on 3656 faces (100.0% area) of pressure-outlet 8.
    42  2.7327e-02  1.7792e-03  1.7774e-03  6.3756e-03  8.3952e-03  1.4643e-02  0:00:05   18

 Reversed flow on 724 faces (83.0% area) of pressure-outlet 7.

 Reversed flow on 3656 faces (100.0% area) of pressure-outlet 8.
    43  2.7655e-02  9.6758e-04  9.7528e-04  3.8833e-03  4.1025e-03  7.4052e-03  0:00:03   17

 Reversed flow on 724 faces (83.0% area) of pressure-outlet 7.

 Reversed flow on 3655 faces (100.0% area) of pressure-outlet 8.
    44  2.6377e-02  8.1310e-04  8.1203e-04  2.7942e-03  2.1176e-03  3.8578e-03  0:00:03   16

 Reversed flow on 724 faces (83.0% area) of pressure-outlet 7.

 Reversed flow on 3655 faces (100.0% area) of pressure-outlet 8.
    45  2.0561e-02  5.8450e-04  5.7313e-04  1.7501e-03  1.1458e-03  2.0814e-03  0:00:02   15

 Reversed flow on 724 faces (83.0% area) of pressure-outlet 7.

 Reversed flow on 3655 faces (100.0% area) of pressure-outlet 8.
    46  1.6737e-02  4.0909e-04  4.0742e-04  1.1315e-03  6.5388e-04  1.1789e-03  0:00:01   14

 Reversed flow on 724 faces (83.0% area) of pressure-outlet 7.

 Reversed flow on 3655 faces (100.0% area) of pressure-outlet 8.
    47  1.4097e-02  3.3099e-04  3.3431e-04  7.7976e-04  3.9270e-04  7.0099e-04  0:00:01   13

 Reversed flow on 724 faces (83.0% area) of pressure-outlet 7.

 Reversed flow on 3654 faces (99.9% area) of pressure-outlet 8.
    48  1.1392e-02  2.5607e-04  2.5835e-04  5.3954e-04  2.4500e-04  4.3299e-04  0:00:01   12

 Reversed flow on 724 faces (83.0% area) of pressure-outlet 7.

 Reversed flow on 3654 faces (99.9% area) of pressure-outlet 8.
    49  9.3104e-03  2.1043e-04  2.1079e-04  3.8998e-04  1.5830e-04  2.7707e-04  0:00:01   11

 Reversed flow on 724 faces (83.0% area) of pressure-outlet 7.

 Reversed flow on 3654 faces (99.9% area) of pressure-outlet 8.
    50  7.7523e-03  1.8012e-04  1.7970e-04  2.9104e-04  1.0497e-04  1.8243e-04  0:00:02   10

 Reversed flow on 724 faces (83.0% area) of pressure-outlet 7.

 Reversed flow on 3654 faces (99.9% area) of pressure-outlet 8.

  iter  continuity  x-velocity  y-velocity  z-velocity           k     epsilon     time/iter
    51  6.3704e-03  1.4497e-04  1.4511e-04  2.1476e-04  7.0938e-05  1.2246e-04  0:00:02    9

 Reversed flow on 724 faces (83.0% area) of pressure-outlet 7.

 Reversed flow on 3654 faces (99.9% area) of pressure-outlet 8.
    52  5.2012e-03  1.1256e-04  1.1283e-04  1.5787e-04  4.9210e-05  8.4057e-05  0:00:01    8

 Reversed flow on 724 faces (83.0% area) of pressure-outlet 7.

 Reversed flow on 3654 faces (99.9% area) of pressure-outlet 8.
    53  4.3112e-03  1.0157e-04  1.0149e-04  1.2625e-04  3.4016e-05  5.8143e-05  0:00:01    7

 Reversed flow on 724 faces (83.0% area) of pressure-outlet 7.

 Reversed flow on 3654 faces (99.9% area) of pressure-outlet 8.
    54  3.4837e-03  7.3024e-05  7.2774e-05  9.1839e-05  2.4066e-05  4.0668e-05  0:00:01    6

 Reversed flow on 724 faces (83.0% area) of pressure-outlet 7.

 Reversed flow on 3654 faces (99.9% area) of pressure-outlet 8.
    55  2.8622e-03  6.4343e-05  6.4010e-05  7.5628e-05  1.6952e-05  2.8770e-05  0:00:00    5

 Reversed flow on 724 faces (83.0% area) of pressure-outlet 7.

 Reversed flow on 3654 faces (99.9% area) of pressure-outlet 8.
    56  2.2995e-03  4.6070e-05  4.5899e-05  5.6446e-05  1.2081e-05  2.0592e-05  0:00:00    4

 Reversed flow on 724 faces (83.0% area) of pressure-outlet 7.

 Reversed flow on 3654 faces (99.9% area) of pressure-outlet 8.
    57  1.8545e-03  3.5530e-05  3.5682e-05  4.4898e-05  8.8140e-06  1.5006e-05  0:00:00    3

 Reversed flow on 724 faces (83.0% area) of pressure-outlet 7.

 Reversed flow on 3654 faces (99.9% area) of pressure-outlet 8.
    58  1.5192e-03  3.2437e-05  3.2655e-05  3.9592e-05  6.3272e-06  1.1001e-05  0:00:00    2

 Reversed flow on 724 faces (83.0% area) of pressure-outlet 7.

 Reversed flow on 3654 faces (99.9% area) of pressure-outlet 8.
    59  1.2133e-03  2.2353e-05  2.2595e-05  3.0715e-05  4.6354e-06  8.1672e-06  0:00:00    1

 Reversed flow on 724 faces (83.0% area) of pressure-outlet 7.

 Reversed flow on 3654 faces (99.9% area) of pressure-outlet 8.
!   60 solution is converged
    60  9.8947e-04  1.8075e-05  1.8511e-05  2.6152e-05  3.4447e-06  6.1721e-06  0:00:00    0
Flow time = 0.00333s, time step = 3
87 more time steps

Updating solution at time level N...
 done.

  iter  continuity  x-velocity  y-velocity  z-velocity           k     epsilon     time/iter
!   60 solution is converged
    60  9.8947e-04  1.8075e-05  1.8511e-05  2.6152e-05  3.4447e-06  6.1721e-06  0:00:03   20

 Reversed flow on 724 faces (83.0% area) of pressure-outlet 7.

 Reversed flow on 3654 faces (99.9% area) of pressure-outlet 8.
    61  1.3679e-02  2.9294e-03  2.8873e-03  1.0345e-02  1.7964e-02  2.9352e-02  0:00:02   19

 Reversed flow on 725 faces (83.1% area) of pressure-outlet 7.

 Reversed flow on 3654 faces (99.9% area) of pressure-outlet 8.
    62  1.9997e-02  1.5416e-03  1.5194e-03  6.1547e-03  8.2993e-03  1.4385e-02  0:00:05   18

 Reversed flow on 725 faces (83.1% area) of pressure-outlet 7.

 Reversed flow on 3655 faces (100.0% area) of pressure-outlet 8.
    63  2.0377e-02  8.0432e-04  7.9519e-04  3.7154e-03  4.0210e-03  7.2326e-03  0:00:04   17

 Reversed flow on 725 faces (83.1% area) of pressure-outlet 7.

 Reversed flow on 3654 faces (100.0% area) of pressure-outlet 8.
    64  2.0494e-02  6.7144e-04  6.6368e-04  2.7977e-03  2.0486e-03  3.7177e-03  0:00:03   16

 Reversed flow on 725 faces (83.1% area) of pressure-outlet 7.

 Reversed flow on 3655 faces (100.0% area) of pressure-outlet 8.
    65  1.5786e-02  5.0282e-04  4.8780e-04  1.7419e-03  1.0843e-03  1.9593e-03  0:00:02   15

 Reversed flow on 725 faces (83.1% area) of pressure-outlet 7.

 Reversed flow on 3655 faces (100.0% area) of pressure-outlet 8.
    66  1.3578e-02  4.0162e-04  3.9621e-04  1.1438e-03  6.0812e-04  1.0892e-03  0:00:02   14

 Reversed flow on 725 faces (83.1% area) of pressure-outlet 7.

 Reversed flow on 3655 faces (100.0% area) of pressure-outlet 8.
    67  1.1499e-02  3.3545e-04  3.3435e-04  7.6359e-04  3.5813e-04  6.3632e-04  0:00:01   13

 Reversed flow on 725 faces (83.1% area) of pressure-outlet 7.

 Reversed flow on 3655 faces (100.0% area) of pressure-outlet 8.
    68  9.4524e-03  2.5226e-04  2.5414e-04  5.2007e-04  2.2080e-04  3.8885e-04  0:00:01   12

 Reversed flow on 725 faces (83.1% area) of pressure-outlet 7.

 Reversed flow on 3654 faces (99.9% area) of pressure-outlet 8.
    69  7.9594e-03  2.2442e-04  2.2787e-04  3.8405e-04  1.4047e-04  2.4539e-04  0:00:01   11

 Reversed flow on 725 faces (83.1% area) of pressure-outlet 7.

 Reversed flow on 3655 faces (100.0% area) of pressure-outlet 8.
    70  6.6155e-03  1.7789e-04  1.8083e-04  2.7332e-04  9.1257e-05  1.5859e-04  0:00:03   10

 Reversed flow on 725 faces (83.1% area) of pressure-outlet 7.

 Reversed flow on 3654 faces (99.9% area) of pressure-outlet 8.

  iter  continuity  x-velocity  y-velocity  z-velocity           k     epsilon     time/iter
    71  5.3367e-03  1.2537e-04  1.2963e-04  1.8923e-04  6.1150e-05  1.0492e-04  0:00:02    9

 Reversed flow on 725 faces (83.1% area) of pressure-outlet 7.

 Reversed flow on 3655 faces (100.0% area) of pressure-outlet 8.
    72  4.5065e-03  1.1419e-04  1.1898e-04  1.5001e-04  4.1420e-05  7.0877e-05  0:00:01    8

 Reversed flow on 725 faces (83.1% area) of pressure-outlet 7.

 Reversed flow on 3654 faces (99.9% area) of pressure-outlet 8.
    73  3.7196e-03  9.1598e-05  9.6291e-05  1.1328e-04  2.8212e-05  4.8635e-05  0:00:01    7

 Reversed flow on 725 faces (83.1% area) of pressure-outlet 7.

 Reversed flow on 3655 faces (100.0% area) of pressure-outlet 8.
    74  3.0086e-03  6.4033e-05  6.8471e-05  8.2099e-05  1.9880e-05  3.4227e-05  0:00:01    6

 Reversed flow on 725 faces (83.1% area) of pressure-outlet 7.

 Reversed flow on 3654 faces (99.9% area) of pressure-outlet 8.
    75  2.5100e-03  5.9264e-05  6.3701e-05  7.0734e-05  1.3806e-05  2.4154e-05  0:00:00    5

 Reversed flow on 725 faces (83.1% area) of pressure-outlet 7.

 Reversed flow on 3655 faces (100.0% area) of pressure-outlet 8.
    76  2.0385e-03  4.1919e-05  4.5844e-05  5.3367e-05  9.9618e-06  1.7499e-05  0:00:00    4

 Reversed flow on 725 faces (83.1% area) of pressure-outlet 7.

 Reversed flow on 3654 faces (99.9% area) of pressure-outlet 8.
    77  1.7014e-03  3.8439e-05  4.2160e-05  4.7279e-05  7.0467e-06  1.2660e-05  0:00:00    3

 Reversed flow on 725 faces (83.1% area) of pressure-outlet 7.

 Reversed flow on 3655 faces (100.0% area) of pressure-outlet 8.
    78  1.3973e-03  2.7462e-05  3.0657e-05  3.6774e-05  5.1715e-06  9.3162e-06  0:00:00    2

 Reversed flow on 725 faces (83.1% area) of pressure-outlet 7.

 Reversed flow on 3654 faces (99.9% area) of pressure-outlet 8.
    79  1.1547e-03  2.4870e-05  2.7689e-05  3.3017e-05  3.7346e-06  6.8773e-06  0:00:00    1

 Reversed flow on 725 faces (83.1% area) of pressure-outlet 7.

 Reversed flow on 3655 faces (100.0% area) of pressure-outlet 8.
!   80 solution is converged
    80  9.5182e-04  1.7965e-05  2.0243e-05  2.6493e-05  2.7886e-06  5.1116e-06  0:00:00    0
Flow time = 0.00444s, time step = 4
86 more time steps

Updating solution at time level N...
 done.

  iter  continuity  x-velocity  y-velocity  z-velocity           k     epsilon     time/iter
!   80 solution is converged
    80  9.5182e-04  1.7965e-05  2.0243e-05  2.6493e-05  2.7886e-06  5.1116e-06  0:00:03   20

 Reversed flow on 725 faces (83.1% area) of pressure-outlet 7.

 Reversed flow on 3654 faces (99.9% area) of pressure-outlet 8.
    81  1.1822e-02  3.0604e-03  2.9920e-03  1.0433e-02  1.8038e-02  2.9409e-02  0:00:02   19

 Reversed flow on 725 faces (83.1% area) of pressure-outlet 7.

 Reversed flow on 3656 faces (100.0% area) of pressure-outlet 8.
    82  1.7699e-02  1.6194e-03  1.5828e-03  6.1917e-03  8.2571e-03  1.4209e-02  0:00:02   18

 Reversed flow on 725 faces (83.1% area) of pressure-outlet 7.

 Reversed flow on 3655 faces (100.0% area) of pressure-outlet 8.
    83  1.8229e-02  8.4073e-04  8.3189e-04  3.7248e-03  3.9730e-03  7.1754e-03  0:00:01   17

 Reversed flow on 725 faces (83.1% area) of pressure-outlet 7.

 Reversed flow on 3655 faces (100.0% area) of pressure-outlet 8.
    84  1.8013e-02  7.2553e-04  6.9816e-04  2.9214e-03  2.0147e-03  3.7012e-03  0:00:01   16

 Reversed flow on 725 faces (83.1% area) of pressure-outlet 7.

 Reversed flow on 3655 faces (100.0% area) of pressure-outlet 8.
    85  1.4514e-02  5.1832e-04  5.2014e-04  1.8109e-03  1.0410e-03  1.8840e-03  0:00:04   15

 Reversed flow on 725 faces (83.1% area) of pressure-outlet 7.

 Reversed flow on 3655 faces (100.0% area) of pressure-outlet 8.
    86  1.2270e-02  4.3337e-04  4.4179e-04  1.1846e-03  5.7443e-04  1.0297e-03  0:00:03   14

 Reversed flow on 725 faces (83.1% area) of pressure-outlet 7.

 Reversed flow on 3655 faces (100.0% area) of pressure-outlet 8.
    87  1.0512e-02  3.7740e-04  3.7551e-04  7.8871e-04  3.3457e-04  5.9924e-04  0:00:02   13

 Reversed flow on 725 faces (83.1% area) of pressure-outlet 7.

 Reversed flow on 3655 faces (100.0% area) of pressure-outlet 8.
    88  9.0364e-03  3.1663e-04  3.0917e-04  5.5569e-04  2.0324e-04  3.6140e-04  0:00:02   12

 Reversed flow on 725 faces (83.1% area) of pressure-outlet 7.

 Reversed flow on 3655 faces (100.0% area) of pressure-outlet 8.
    89  7.6738e-03  2.5125e-04  2.4623e-04  3.9714e-04  1.2759e-04  2.2567e-04  0:00:01   11

 Reversed flow on 725 faces (83.1% area) of pressure-outlet 7.

 Reversed flow on 3655 faces (100.0% area) of pressure-outlet 8.
    90  6.4289e-03  1.9461e-04  1.9316e-04  2.8445e-04  8.2341e-05  1.4526e-04  0:00:01   10

 Reversed flow on 725 faces (83.1% area) of pressure-outlet 7.

 Reversed flow on 3655 faces (100.0% area) of pressure-outlet 8.

  iter  continuity  x-velocity  y-velocity  z-velocity           k     epsilon     time/iter
    91  5.3458e-03  1.5268e-04  1.5218e-04  2.0761e-04  5.4442e-05  9.6072e-05  0:00:01    9

 Reversed flow on 725 faces (83.1% area) of pressure-outlet 7.

 Reversed flow on 3655 faces (100.0% area) of pressure-outlet 8.
    92  4.4240e-03  1.1997e-04  1.2076e-04  1.5468e-04  3.6651e-05  6.5425e-05  0:00:00    8

 Reversed flow on 725 faces (83.1% area) of pressure-outlet 7.

 Reversed flow on 3655 faces (100.0% area) of pressure-outlet 8.
    93  3.6640e-03  9.5660e-05  9.6383e-05  1.1738e-04  2.4788e-05  4.4831e-05  0:00:02    7

 Reversed flow on 725 faces (83.1% area) of pressure-outlet 7.

 Reversed flow on 3655 faces (100.0% area) of pressure-outlet 8.
    94  2.9650e-03  6.7777e-05  6.7561e-05  8.5631e-05  1.7357e-05  3.1735e-05  0:00:01    6

 Reversed flow on 725 faces (83.1% area) of pressure-outlet 7.

 Reversed flow on 3655 faces (100.0% area) of pressure-outlet 8.
    95  2.4525e-03  6.0673e-05  6.0782e-05  7.2525e-05  1.1911e-05  2.2183e-05  0:00:01    5

 Reversed flow on 725 faces (83.1% area) of pressure-outlet 7.

 Reversed flow on 3655 faces (100.0% area) of pressure-outlet 8.
    96  1.9711e-03  4.2876e-05  4.3654e-05  5.4767e-05  8.5637e-06  1.6346e-05  0:00:00    4

 Reversed flow on 725 faces (83.1% area) of pressure-outlet 7.

 Reversed flow on 3655 faces (100.0% area) of pressure-outlet 8.
    97  1.6329e-03  3.8996e-05  4.0399e-05  4.8466e-05  5.9484e-06  1.1677e-05  0:00:00    3

 Reversed flow on 725 faces (83.1% area) of pressure-outlet 7.

 Reversed flow on 3655 faces (100.0% area) of pressure-outlet 8.
    98  1.3234e-03  2.7430e-05  2.8820e-05  3.8107e-05  4.2641e-06  8.2872e-06  0:00:00    2

 Reversed flow on 725 faces (83.1% area) of pressure-outlet 7.

 Reversed flow on 3655 faces (100.0% area) of pressure-outlet 8.
    99  1.0865e-03  2.4302e-05  2.5587e-05  3.3228e-05  2.9280e-06  5.6701e-06  0:00:00    1

 Reversed flow on 725 faces (83.1% area) of pressure-outlet 7.

 Reversed flow on 3655 faces (100.0% area) of pressure-outlet 8.
!  100 solution is converged
   100  8.7253e-04  1.6873e-05  1.8017e-05  2.6482e-05  2.1357e-06  4.1670e-06  0:00:00    0
Flow time = 0.00555s, time step = 5
85 more time steps

Updating solution at time level N...
 done.

  iter  continuity  x-velocity  y-velocity  z-velocity           k     epsilon     time/iter
!  100 solution is converged
   100  8.7253e-04  1.6873e-05  1.8017e-05  2.6482e-05  2.1357e-06  4.1670e-06  0:00:04   20

 Reversed flow on 725 faces (83.1% area) of pressure-outlet 7.

 Reversed flow on 3655 faces (100.0% area) of pressure-outlet 8.
   101  1.1384e-02  3.4513e-03  3.3584e-03  1.0758e-02  1.8198e-02  2.9564e-02  0:00:03   19

 Reversed flow on 725 faces (83.1% area) of pressure-outlet 7.

 Reversed flow on 3656 faces (100.0% area) of pressure-outlet 8.
   102  1.7199e-02  1.8505e-03  1.7997e-03  6.3266e-03  8.2355e-03  1.4100e-02  0:00:02   18

 Reversed flow on 725 faces (83.1% area) of pressure-outlet 7.

 Reversed flow on 3655 faces (100.0% area) of pressure-outlet 8.
   103  1.7600e-02  9.3869e-04  9.1311e-04  3.7393e-03  3.9434e-03  7.2583e-03  0:00:02   17

 Reversed flow on 725 faces (83.1% area) of pressure-outlet 7.

 Reversed flow on 3655 faces (100.0% area) of pressure-outlet 8.
   104  1.7458e-02  8.5895e-04  8.2075e-04  3.1094e-03  1.9925e-03  3.7909e-03  0:00:01   16

 Reversed flow on 725 faces (83.1% area) of pressure-outlet 7.

 Reversed flow on 3656 faces (100.0% area) of pressure-outlet 8.
   105  1.4163e-02  5.7675e-04  5.8073e-04  1.9219e-03  1.0070e-03  1.8611e-03  0:00:01   15

 Reversed flow on 725 faces (83.1% area) of pressure-outlet 7.

 Reversed flow on 3656 faces (100.0% area) of pressure-outlet 8.
   106  1.1828e-02  4.9000e-04  4.9065e-04  1.2353e-03  5.4665e-04  1.0024e-03  0:00:04   14

 Reversed flow on 725 faces (83.1% area) of pressure-outlet 7.

 Reversed flow on 3656 faces (100.0% area) of pressure-outlet 8.
   107  1.0528e-02  4.2612e-04  4.2831e-04  8.2060e-04  3.1415e-04  5.7905e-04  0:00:03   13

 Reversed flow on 725 faces (83.1% area) of pressure-outlet 7.

 Reversed flow on 3656 faces (100.0% area) of pressure-outlet 8.
   108  9.1823e-03  3.5767e-04  3.5721e-04  5.8545e-04  1.9034e-04  3.5345e-04  0:00:02   12

 Reversed flow on 725 faces (83.1% area) of pressure-outlet 7.

 Reversed flow on 3656 faces (100.0% area) of pressure-outlet 8.
   109  7.8346e-03  2.8488e-04  2.8688e-04  4.2101e-04  1.1931e-04  2.2365e-04  0:00:01   11

 Reversed flow on 725 faces (83.1% area) of pressure-outlet 7.

 Reversed flow on 3656 faces (100.0% area) of pressure-outlet 8.
   110  6.5924e-03  2.2100e-04  2.2272e-04  3.0281e-04  7.7197e-05  1.4784e-04  0:00:01   10

 Reversed flow on 725 faces (83.1% area) of pressure-outlet 7.

 Reversed flow on 3656 faces (100.0% area) of pressure-outlet 8.

  iter  continuity  x-velocity  y-velocity  z-velocity           k     epsilon     time/iter
   111  5.5624e-03  1.7445e-04  1.7673e-04  2.2326e-04  5.1045e-05  1.0035e-04  0:00:01    9

 Reversed flow on 725 faces (83.1% area) of pressure-outlet 7.

 Reversed flow on 3656 faces (100.0% area) of pressure-outlet 8.
   112  4.6490e-03  1.3743e-04  1.4055e-04  1.6856e-04  3.4361e-05  7.0009e-05  0:00:01    8

 Reversed flow on 725 faces (83.1% area) of pressure-outlet 7.

 Reversed flow on 3656 faces (100.0% area) of pressure-outlet 8.
   113  3.8540e-03  1.1020e-04  1.1279e-04  1.3004e-04  2.3219e-05  4.8479e-05  0:00:00    7

 Reversed flow on 725 faces (83.1% area) of pressure-outlet 7.

 Reversed flow on 3656 faces (100.0% area) of pressure-outlet 8.
   114  3.1434e-03  7.8734e-05  8.0447e-05  9.6464e-05  1.6303e-05  3.4904e-05  0:00:00    6

 Reversed flow on 725 faces (83.1% area) of pressure-outlet 7.

 Reversed flow on 3656 faces (100.0% area) of pressure-outlet 8.
   115  2.5942e-03  6.8800e-05  7.1853e-05  8.1378e-05  1.1287e-05  2.4934e-05  0:00:01    5

 Reversed flow on 725 faces (83.1% area) of pressure-outlet 7.

 Reversed flow on 3656 faces (100.0% area) of pressure-outlet 8.
   116  2.1092e-03  4.9993e-05  5.2898e-05  6.1208e-05  8.0493e-06  1.7895e-05  0:00:01    4

 Reversed flow on 725 faces (83.1% area) of pressure-outlet 7.

 Reversed flow on 3656 faces (100.0% area) of pressure-outlet 8.
   117  1.7412e-03  4.3934e-05  4.6567e-05  5.3200e-05  5.5892e-06  1.2476e-05  0:00:00    3

 Reversed flow on 725 faces (83.1% area) of pressure-outlet 7.

 Reversed flow on 3656 faces (100.0% area) of pressure-outlet 8.
   118  1.4158e-03  3.2220e-05  3.3845e-05  4.2227e-05  3.9297e-06  8.8963e-06  0:00:00    2

 Reversed flow on 725 faces (83.1% area) of pressure-outlet 7.

 Reversed flow on 3656 faces (100.0% area) of pressure-outlet 8.
   119  1.1523e-03  2.4786e-05  2.5854e-05  3.5547e-05  2.9067e-06  6.6058e-06  0:00:00    1

 Reversed flow on 725 faces (83.1% area) of pressure-outlet 7.

 Reversed flow on 3656 faces (100.0% area) of pressure-outlet 8.
!  120 solution is converged
   120  9.5670e-04  2.3816e-05  2.4402e-05  3.2896e-05  2.0548e-06  4.8952e-06  0:00:00    0
Flow time = 0.006660000000000001s, time step = 6
84 more time steps

Updating solution at time level N...
 done.

  iter  continuity  x-velocity  y-velocity  z-velocity           k     epsilon     time/iter
!  120 solution is converged
   120  9.5670e-04  2.3816e-05  2.4402e-05  3.2896e-05  2.0548e-06  4.8952e-06  0:00:02   20

 Reversed flow on 725 faces (83.1% area) of pressure-outlet 7.

 Reversed flow on 3656 faces (100.0% area) of pressure-outlet 8.
   121  1.1024e-02  3.9865e-03  3.8795e-03  1.1151e-02  1.8404e-02  2.9873e-02  0:00:01   19

 Reversed flow on 725 faces (83.1% area) of pressure-outlet 7.

 Reversed flow on 3656 faces (100.0% area) of pressure-outlet 8.
   122  1.7246e-02  2.0869e-03  2.0478e-03  6.4854e-03  8.2258e-03  1.4092e-02  0:00:04   18

 Reversed flow on 726 faces (83.2% area) of pressure-outlet 7.

 Reversed flow on 3656 faces (100.0% area) of pressure-outlet 8.
   123  1.7753e-02  1.0524e-03  1.0191e-03  3.8081e-03  3.9205e-03  7.4945e-03  0:00:03   17

 Reversed flow on 726 faces (83.2% area) of pressure-outlet 7.

 Reversed flow on 3655 faces (100.0% area) of pressure-outlet 8.
   124  1.7959e-02  1.0627e-03  1.0062e-03  3.3556e-03  1.9906e-03  4.0703e-03  0:00:03   16

 Reversed flow on 726 faces (83.2% area) of pressure-outlet 7.

 Reversed flow on 3656 faces (100.0% area) of pressure-outlet 8.
   125  1.3876e-02  6.4514e-04  6.4235e-04  2.0365e-03  9.8493e-04  1.9328e-03  0:00:02   15

 Reversed flow on 726 faces (83.2% area) of pressure-outlet 7.

 Reversed flow on 3656 faces (100.0% area) of pressure-outlet 8.
   126  1.2000e-02  5.6196e-04  5.7001e-04  1.3193e-03  5.2720e-04  1.0294e-03  0:00:01   14

 Reversed flow on 726 faces (83.2% area) of pressure-outlet 7.

 Reversed flow on 3656 faces (100.0% area) of pressure-outlet 8.
   127  1.0826e-02  4.8888e-04  4.9956e-04  8.8023e-04  3.0211e-04  6.0538e-04  0:00:01   13

 Reversed flow on 726 faces (83.2% area) of pressure-outlet 7.

 Reversed flow on 3656 faces (100.0% area) of pressure-outlet 8.
   128  9.5829e-03  4.1285e-04  4.1616e-04  6.4273e-04  1.8375e-04  3.8702e-04  0:00:01   12

 Reversed flow on 726 faces (83.2% area) of pressure-outlet 7.

 Reversed flow on 3656 faces (100.0% area) of pressure-outlet 8.
   129  8.1977e-03  3.3166e-04  3.3768e-04  4.7315e-04  1.1485e-04  2.4849e-04  0:00:03   11

 Reversed flow on 726 faces (83.2% area) of pressure-outlet 7.

 Reversed flow on 3656 faces (100.0% area) of pressure-outlet 8.
   130  6.9828e-03  2.5625e-04  2.6276e-04  3.4488e-04  7.4554e-05  1.6974e-04  0:00:02   10

 Reversed flow on 726 faces (83.2% area) of pressure-outlet 7.

 Reversed flow on 3655 faces (100.0% area) of pressure-outlet 8.

  iter  continuity  x-velocity  y-velocity  z-velocity           k     epsilon     time/iter
   131  5.9953e-03  2.0122e-04  2.1021e-04  2.5813e-04  4.8930e-05  1.1755e-04  0:00:01    9

 Reversed flow on 726 faces (83.2% area) of pressure-outlet 7.

 Reversed flow on 3655 faces (100.0% area) of pressure-outlet 8.
   132  4.8319e-03  1.4173e-04  1.4748e-04  1.8308e-04  3.3807e-05  8.5350e-05  0:00:01    8

 Reversed flow on 726 faces (83.2% area) of pressure-outlet 7.

 Reversed flow on 3655 faces (100.0% area) of pressure-outlet 8.
   133  4.1670e-03  1.3224e-04  1.3707e-04  1.5825e-04  2.2625e-05  5.9599e-05  0:00:01    7

 Reversed flow on 726 faces (83.2% area) of pressure-outlet 7.

 Reversed flow on 3656 faces (100.0% area) of pressure-outlet 8.
   134  3.4530e-03  9.4783e-05  9.7217e-05  1.1914e-04  1.6863e-05  4.5687e-05  0:00:00    6

 Reversed flow on 726 faces (83.2% area) of pressure-outlet 7.

 Reversed flow on 3655 faces (100.0% area) of pressure-outlet 8.
   135  2.8688e-03  8.9029e-05  9.2821e-05  1.0326e-04  1.1306e-05  3.1727e-05  0:00:00    5

 Reversed flow on 726 faces (83.2% area) of pressure-outlet 7.

 Reversed flow on 3655 faces (100.0% area) of pressure-outlet 8.
   136  2.3905e-03  6.4282e-05  6.7307e-05  7.9243e-05  8.5495e-06  2.5002e-05  0:00:00    4

 Reversed flow on 726 faces (83.2% area) of pressure-outlet 7.

 Reversed flow on 3655 faces (100.0% area) of pressure-outlet 8.
   137  2.0489e-03  5.5661e-05  5.8731e-05  6.9424e-05  6.9730e-06  2.1610e-05  0:00:01    3

 Reversed flow on 726 faces (83.2% area) of pressure-outlet 7.

 Reversed flow on 3655 faces (100.0% area) of pressure-outlet 8.
   138  1.6505e-03  4.3331e-05  4.4628e-05  5.6157e-05  4.5592e-06  1.4438e-05  0:00:00    2

 Reversed flow on 726 faces (83.2% area) of pressure-outlet 7.

 Reversed flow on 3656 faces (100.0% area) of pressure-outlet 8.
   139  1.3956e-03  3.2314e-05  3.4615e-05  4.8323e-05  3.9360e-06  1.3294e-05  0:00:00    1

 Reversed flow on 726 faces (83.2% area) of pressure-outlet 7.

 Reversed flow on 3656 faces (100.0% area) of pressure-outlet 8.
   140  1.2060e-03  2.9960e-05  3.1986e-05  4.6395e-05  3.7543e-06  1.3622e-05  0:00:00    0
Flow time = 0.007770000000000001s, time step = 7
83 more time steps

Updating solution at time level N...
 done.

  iter  continuity  x-velocity  y-velocity  z-velocity           k     epsilon     time/iter
   140  1.2060e-03  2.9960e-05  3.1986e-05  4.6395e-05  3.7543e-06  1.3622e-05  0:00:02   20

 Reversed flow on 726 faces (83.2% area) of pressure-outlet 7.

 Reversed flow on 3655 faces (100.0% area) of pressure-outlet 8.
   141  1.0790e-02  4.5962e-03  4.4960e-03  1.1640e-02  1.8632e-02  3.0471e-02  0:00:02   19

 Reversed flow on 726 faces (83.2% area) of pressure-outlet 7.

 Reversed flow on 3655 faces (100.0% area) of pressure-outlet 8.
   142  1.7696e-02  2.3895e-03  2.3355e-03  6.7225e-03  8.2432e-03  1.4344e-02  0:00:01   18

 Reversed flow on 726 faces (83.2% area) of pressure-outlet 7.

 Reversed flow on 3655 faces (100.0% area) of pressure-outlet 8.
   143  1.8477e-02  1.1843e-03  1.1458e-03  3.9375e-03  3.9139e-03  7.9503e-03  0:00:01   17

 Reversed flow on 727 faces (83.4% area) of pressure-outlet 7.

 Reversed flow on 3655 faces (100.0% area) of pressure-outlet 8.
   144  1.9116e-02  1.2840e-03  1.1860e-03  3.6806e-03  2.0082e-03  4.7220e-03  0:00:04   16

 Reversed flow on 727 faces (83.4% area) of pressure-outlet 7.

 Reversed flow on 3655 faces (100.0% area) of pressure-outlet 8.
   145  1.4124e-02  7.5580e-04  7.2458e-04  2.1705e-03  9.7983e-04  2.2403e-03  0:00:03   15

 Reversed flow on 727 faces (83.4% area) of pressure-outlet 7.

 Reversed flow on 3655 faces (100.0% area) of pressure-outlet 8.
   146  1.2092e-02  6.3128e-04  6.2996e-04  1.4050e-03  5.1933e-04  1.2273e-03  0:00:02   14

 Reversed flow on 727 faces (83.4% area) of pressure-outlet 7.

 Reversed flow on 3655 faces (100.0% area) of pressure-outlet 8.
   147  1.0987e-02  5.4877e-04  5.6263e-04  9.3072e-04  2.9669e-04  7.3507e-04  0:00:02   13

 Reversed flow on 727 faces (83.4% area) of pressure-outlet 7.

 Reversed flow on 3655 faces (100.0% area) of pressure-outlet 8.
   148  9.8386e-03  4.6629e-04  4.7735e-04  6.9825e-04  1.7998e-04  4.7240e-04  0:00:01   12

 Reversed flow on 727 faces (83.4% area) of pressure-outlet 7.

 Reversed flow on 3655 faces (100.0% area) of pressure-outlet 8.
   149  8.6244e-03  3.7036e-04  3.7770e-04  5.1343e-04  1.1367e-04  3.1715e-04  0:00:01   11

 Reversed flow on 727 faces (83.4% area) of pressure-outlet 7.

 Reversed flow on 3655 faces (100.0% area) of pressure-outlet 8.
   150  7.4145e-03  2.9216e-04  3.0014e-04  3.7908e-04  7.3824e-05  2.1873e-04  0:00:01   10

 Reversed flow on 727 faces (83.4% area) of pressure-outlet 7.

 Reversed flow on 3655 faces (100.0% area) of pressure-outlet 8.

  iter  continuity  x-velocity  y-velocity  z-velocity           k     epsilon     time/iter
   151  6.3360e-03  2.3215e-04  2.4039e-04  2.8768e-04  4.9208e-05  1.5109e-04  0:00:00    9

 Reversed flow on 727 faces (83.4% area) of pressure-outlet 7.

 Reversed flow on 3655 faces (100.0% area) of pressure-outlet 8.
   152  5.2632e-03  1.8907e-04  1.9097e-04  2.1966e-04  3.3116e-05  1.0500e-04  0:00:02    8

 Reversed flow on 727 faces (83.4% area) of pressure-outlet 7.

 Reversed flow on 3655 faces (100.0% area) of pressure-outlet 8.
   153  4.3419e-03  1.5175e-04  1.5155e-04  1.7273e-04  2.2874e-05  7.7692e-05  0:00:01    7

 Reversed flow on 727 faces (83.4% area) of pressure-outlet 7.

 Reversed flow on 3655 faces (100.0% area) of pressure-outlet 8.
   154  3.5081e-03  1.0772e-04  1.0924e-04  1.2803e-04  1.6853e-05  5.9711e-05  0:00:01    6

 Reversed flow on 727 faces (83.4% area) of pressure-outlet 7.

 Reversed flow on 3655 faces (100.0% area) of pressure-outlet 8.
   155  2.9355e-03  9.8481e-05  1.0178e-04  1.1214e-04  1.2151e-05  4.3559e-05  0:00:01    5

 Reversed flow on 727 faces (83.4% area) of pressure-outlet 7.

 Reversed flow on 3655 faces (100.0% area) of pressure-outlet 8.
   156  2.4181e-03  7.7749e-05  8.3153e-05  9.1247e-05  8.7593e-06  3.3279e-05  0:00:00    4

 Reversed flow on 727 faces (83.4% area) of pressure-outlet 7.

 Reversed flow on 3655 faces (100.0% area) of pressure-outlet 8.
   157  1.9739e-03  5.5323e-05  6.0702e-05  7.0970e-05  6.7196e-06  2.9302e-05  0:00:00    3

 Reversed flow on 727 faces (83.4% area) of pressure-outlet 7.

 Reversed flow on 3655 faces (100.0% area) of pressure-outlet 8.
   158  1.6825e-03  4.7833e-05  5.3091e-05  6.4820e-05  5.1773e-06  2.4115e-05  0:00:00    2

 Reversed flow on 727 faces (83.4% area) of pressure-outlet 7.

 Reversed flow on 3655 faces (100.0% area) of pressure-outlet 8.
   159  1.3396e-03  3.6954e-05  4.1719e-05  5.0978e-05  4.0331e-06  2.0355e-05  0:00:00    1

 Reversed flow on 727 faces (83.4% area) of pressure-outlet 7.

 Reversed flow on 3655 faces (100.0% area) of pressure-outlet 8.
   160  1.0949e-03  3.1886e-05  3.6410e-05  4.5586e-05  2.9816e-06  1.5702e-05  0:00:00    0
Flow time = 0.008880000000000001s, time step = 8
82 more time steps

Updating solution at time level N...
 done.

  iter  continuity  x-velocity  y-velocity  z-velocity           k     epsilon     time/iter
   160  1.0949e-03  3.1886e-05  3.6410e-05  4.5586e-05  2.9816e-06  1.5702e-05  0:00:01   20

 Reversed flow on 727 faces (83.4% area) of pressure-outlet 7.

 Reversed flow on 3655 faces (100.0% area) of pressure-outlet 8.
   161  1.0857e-02  5.2388e-03  5.1283e-03  1.2181e-02  1.8924e-02  3.1756e-02  0:00:01   19

 Reversed flow on 728 faces (83.5% area) of pressure-outlet 7.

 Reversed flow on 3655 faces (100.0% area) of pressure-outlet 8.
   162  1.8470e-02  2.7033e-03  2.6413e-03  6.9889e-03  8.2890e-03  1.5000e-02  0:00:00   18

 Reversed flow on 728 faces (83.5% area) of pressure-outlet 7.

 Reversed flow on 3655 faces (100.0% area) of pressure-outlet 8.
   163  1.9324e-02  1.3387e-03  1.2857e-03  4.0866e-03  3.9272e-03  8.6435e-03  0:00:00   17

 Reversed flow on 728 faces (83.5% area) of pressure-outlet 7.

 Reversed flow on 3655 faces (100.0% area) of pressure-outlet 8.
   164  2.1010e-02  1.5205e-03  1.3874e-03  4.0666e-03  2.0699e-03  6.0847e-03  0:00:00   16

 Reversed flow on 728 faces (83.5% area) of pressure-outlet 7.

 Reversed flow on 3655 faces (100.0% area) of pressure-outlet 8.
   165  1.4859e-02  8.7308e-04  8.6833e-04  2.3754e-03  1.0165e-03  3.2349e-03  0:00:00   15

 Reversed flow on 728 faces (83.5% area) of pressure-outlet 7.

 Reversed flow on 3655 faces (100.0% area) of pressure-outlet 8.
   166  1.2673e-02  7.1810e-04  7.3239e-04  1.5395e-03  5.5578e-04  2.0576e-03  0:00:03   14

 Reversed flow on 728 faces (83.5% area) of pressure-outlet 7.

 Reversed flow on 3655 faces (100.0% area) of pressure-outlet 8.
   167  1.1394e-02  6.1927e-04  6.3388e-04  1.0185e-03  3.2502e-04  1.2894e-03  0:00:02   13

 Reversed flow on 728 faces (83.5% area) of pressure-outlet 7.

 Reversed flow on 3655 faces (100.0% area) of pressure-outlet 8.
   168  1.0409e-02  5.5628e-04  5.7282e-04  7.9419e-04  1.9797e-04  7.8868e-04  0:00:02   12

 Reversed flow on 728 faces (83.5% area) of pressure-outlet 7.

 Reversed flow on 3655 faces (100.0% area) of pressure-outlet 8.
   169  8.9516e-03  4.0934e-04  4.2497e-04  5.7505e-04  1.2202e-04  4.8571e-04  0:00:01   11

 Reversed flow on 728 faces (83.5% area) of pressure-outlet 7.

 Reversed flow on 3655 faces (100.0% area) of pressure-outlet 8.
   170  7.6896e-03  3.2221e-04  3.3565e-04  4.3191e-04  7.8145e-05  3.0739e-04  0:00:01   10

 Reversed flow on 728 faces (83.5% area) of pressure-outlet 7.

 Reversed flow on 3655 faces (100.0% area) of pressure-outlet 8.

  iter  continuity  x-velocity  y-velocity  z-velocity           k     epsilon     time/iter
   171  6.5368e-03  2.5803e-04  2.6921e-04  3.2457e-04  5.3163e-05  2.1178e-04  0:00:01    9

 Reversed flow on 728 faces (83.5% area) of pressure-outlet 7.

 Reversed flow on 3655 faces (100.0% area) of pressure-outlet 8.
   172  5.4742e-03  2.0702e-04  2.1236e-04  2.5089e-04  3.6939e-05  1.5640e-04  0:00:00    8

 Reversed flow on 728 faces (83.5% area) of pressure-outlet 7.

 Reversed flow on 3655 faces (100.0% area) of pressure-outlet 8.
   173  4.4173e-03  1.4682e-04  1.5124e-04  1.8336e-04  2.6578e-05  1.3304e-04  0:00:00    7

 Reversed flow on 728 faces (83.5% area) of pressure-outlet 7.

 Reversed flow on 3655 faces (100.0% area) of pressure-outlet 8.
   174  3.7381e-03  1.3497e-04  1.3996e-04  1.5932e-04  1.9548e-05  1.1301e-04  0:00:00    6

 Reversed flow on 728 faces (83.5% area) of pressure-outlet 7.

 Reversed flow on 3655 faces (100.0% area) of pressure-outlet 8.
   175  3.0144e-03  9.7234e-05  1.0400e-04  1.2336e-04  1.5320e-05  9.3336e-05  0:00:01    5

 Reversed flow on 728 faces (83.5% area) of pressure-outlet 7.

 Reversed flow on 3655 faces (100.0% area) of pressure-outlet 8.
   176  2.5469e-03  8.8399e-05  9.7094e-05  1.0955e-04  1.1882e-05  7.8802e-05  0:00:01    4

 Reversed flow on 728 faces (83.5% area) of pressure-outlet 7.

 Reversed flow on 3655 faces (100.0% area) of pressure-outlet 8.
   177  2.0565e-03  6.1107e-05  7.2450e-05  8.6775e-05  9.4825e-06  6.8193e-05  0:00:00    3

 Reversed flow on 728 faces (83.5% area) of pressure-outlet 7.

 Reversed flow on 3655 faces (100.0% area) of pressure-outlet 8.
   178  1.7380e-03  5.5530e-05  6.7085e-05  7.9770e-05  7.9841e-06  6.6399e-05  0:00:00    2

 Reversed flow on 728 faces (83.5% area) of pressure-outlet 7.

 Reversed flow on 3655 faces (100.0% area) of pressure-outlet 8.
   179  1.4195e-03  3.9241e-05  4.9232e-05  6.6030e-05  6.5501e-06  5.6535e-05  0:00:00    1

 Reversed flow on 728 faces (83.5% area) of pressure-outlet 7.

 Reversed flow on 3655 faces (100.0% area) of pressure-outlet 8.
   180  1.1879e-03  3.6190e-05  4.3501e-05  5.9265e-05  5.5285e-06  5.0831e-05  0:00:00    0
Flow time = 0.009990000000000001s, time step = 9
81 more time steps

Updating solution at time level N...
 done.

  iter  continuity  x-velocity  y-velocity  z-velocity           k     epsilon     time/iter
   180  1.1879e-03  3.6190e-05  4.3501e-05  5.9265e-05  5.5285e-06  5.0831e-05  0:00:01   20

 Reversed flow on 728 faces (83.5% area) of pressure-outlet 7.

 Reversed flow on 3655 faces (100.0% area) of pressure-outlet 8.
   181  1.1204e-02  5.8907e-03  5.8337e-03  1.2771e-02  1.9289e-02  3.3881e-02  0:00:05   19

 Reversed flow on 728 faces (83.5% area) of pressure-outlet 7.

 Reversed flow on 3655 faces (100.0% area) of pressure-outlet 8.
   182  1.8704e-02  3.0038e-03  2.9586e-03  7.2446e-03  8.4059e-03  1.6346e-02  0:00:04   18

 Reversed flow on 728 faces (83.5% area) of pressure-outlet 7.

 Reversed flow on 3653 faces (99.9% area) of pressure-outlet 8.
   183  1.9915e-02  1.4622e-03  1.4201e-03  4.2448e-03  3.9897e-03  9.6313e-03  0:00:03   17

 Reversed flow on 728 faces (83.5% area) of pressure-outlet 7.

 Reversed flow on 3651 faces (99.9% area) of pressure-outlet 8.
   184  2.2713e-02  1.7529e-03  1.5791e-03  4.4857e-03  2.2539e-03  9.1220e-03  0:00:02   16

 Reversed flow on 728 faces (83.5% area) of pressure-outlet 7.

 Reversed flow on 3650 faces (99.9% area) of pressure-outlet 8.
   185  1.6286e-02  1.0030e-03  1.0266e-03  2.6762e-03  1.1737e-03  6.1357e-03  0:00:02   15

 Reversed flow on 728 faces (83.5% area) of pressure-outlet 7.

 Reversed flow on 3647 faces (99.9% area) of pressure-outlet 8.
   186  1.3705e-02  8.8140e-04  9.2048e-04  1.7649e-03  6.5930e-04  4.0407e-03  0:00:01   14

 Reversed flow on 728 faces (83.5% area) of pressure-outlet 7.

 Reversed flow on 3646 faces (99.8% area) of pressure-outlet 8.
   187  1.2019e-02  6.9071e-04  6.9974e-04  1.1170e-03  3.8280e-04  2.2197e-03  0:00:01   13

 Reversed flow on 728 faces (83.5% area) of pressure-outlet 7.

 Reversed flow on 3646 faces (99.8% area) of pressure-outlet 8.
   188  1.0542e-02  5.5070e-04  5.7111e-04  8.4462e-04  2.2457e-04  1.0785e-03  0:00:01   12

 Reversed flow on 728 faces (83.5% area) of pressure-outlet 7.

 Reversed flow on 3645 faces (99.8% area) of pressure-outlet 8.
   189  9.5737e-03  5.0500e-04  5.1930e-04  6.8216e-04  1.2936e-04  6.2806e-04  0:00:00   11

 Reversed flow on 728 faces (83.5% area) of pressure-outlet 7.

 Reversed flow on 3644 faces (99.8% area) of pressure-outlet 8.
   190  8.1979e-03  3.6960e-04  3.8947e-04  4.9358e-04  8.1953e-05  3.7876e-04  0:00:02   10

 Reversed flow on 728 faces (83.5% area) of pressure-outlet 7.

 Reversed flow on 3644 faces (99.8% area) of pressure-outlet 8.

  iter  continuity  x-velocity  y-velocity  z-velocity           k     epsilon     time/iter
   191  6.9562e-03  2.9348e-04  3.0781e-04  3.7753e-04  5.9696e-05  3.4899e-04  0:00:02    9

 Reversed flow on 728 faces (83.5% area) of pressure-outlet 7.

 Reversed flow on 3644 faces (99.8% area) of pressure-outlet 8.
   192  5.8476e-03  2.3764e-04  2.4334e-04  2.9518e-04  5.3691e-05  4.1404e-04  0:00:01    8

 Reversed flow on 728 faces (83.5% area) of pressure-outlet 7.

 Reversed flow on 3644 faces (99.8% area) of pressure-outlet 8.
   193  4.7068e-03  1.6785e-04  1.6668e-04  2.1342e-04  4.8122e-05  4.3541e-04  0:00:01    7

 Reversed flow on 728 faces (83.5% area) of pressure-outlet 7.

 Reversed flow on 3644 faces (99.8% area) of pressure-outlet 8.
   194  3.9816e-03  1.5377e-04  1.5211e-04  1.8584e-04  3.9272e-05  3.8875e-04  0:00:01    6

 Reversed flow on 728 faces (83.5% area) of pressure-outlet 7.

 Reversed flow on 3644 faces (99.8% area) of pressure-outlet 8.
   195  3.2085e-03  1.0963e-04  1.1356e-04  1.4476e-04  3.0417e-05  3.0943e-04  0:00:00    5

 Reversed flow on 728 faces (83.5% area) of pressure-outlet 7.

 Reversed flow on 3644 faces (99.8% area) of pressure-outlet 8.
   196  2.6999e-03  9.7924e-05  1.0463e-04  1.2855e-04  2.2084e-05  2.2162e-04  0:00:00    4

 Reversed flow on 728 faces (83.5% area) of pressure-outlet 7.

 Reversed flow on 3644 faces (99.8% area) of pressure-outlet 8.
   197  2.1830e-03  6.8587e-05  7.8652e-05  1.0131e-04  1.6842e-05  1.6480e-04  0:00:00    3

 Reversed flow on 728 faces (83.5% area) of pressure-outlet 7.

 Reversed flow on 3644 faces (99.8% area) of pressure-outlet 8.
   198  1.8438e-03  6.2211e-05  7.1465e-05  8.9727e-05  1.2612e-05  1.2227e-04  0:00:00    2

 Reversed flow on 728 faces (83.5% area) of pressure-outlet 7.

 Reversed flow on 3644 faces (99.8% area) of pressure-outlet 8.
   199  1.4948e-03  4.4490e-05  5.2571e-05  7.1458e-05  1.0529e-05  1.0124e-04  0:00:00    1

 Reversed flow on 728 faces (83.5% area) of pressure-outlet 7.

 Reversed flow on 3644 faces (99.8% area) of pressure-outlet 8.
   200  1.2531e-03  4.1638e-05  4.7070e-05  6.3949e-05  8.4625e-06  8.5069e-05  0:00:00    0
Flow time = 0.0111s, time step = 10
80 more time steps

Updating solution at time level N...
 done.

  iter  continuity  x-velocity  y-velocity  z-velocity           k     epsilon     time/iter
   200  1.2531e-03  4.1638e-05  4.7070e-05  6.3949e-05  8.4625e-06  8.5069e-05  0:00:03   20

 Reversed flow on 728 faces (83.5% area) of pressure-outlet 7.

 Reversed flow on 3644 faces (99.8% area) of pressure-outlet 8.
   201  1.1519e-02  6.4691e-03  6.5050e-03  1.3373e-02  1.9735e-02  3.6545e-02  0:00:02   19

 Reversed flow on 728 faces (83.5% area) of pressure-outlet 7.

 Reversed flow on 3632 faces (99.6% area) of pressure-outlet 8.
   202  1.9323e-02  3.2416e-03  3.2513e-03  7.5104e-03  8.5954e-03  1.8335e-02  0:00:02   18

 Reversed flow on 728 faces (83.5% area) of pressure-outlet 7.

 Reversed flow on 3628 faces (99.6% area) of pressure-outlet 8.
   203  2.0458e-02  1.5629e-03  1.5611e-03  4.4025e-03  4.1151e-03  1.1828e-02  0:00:01   17

 Reversed flow on 728 faces (83.5% area) of pressure-outlet 7.

 Reversed flow on 3622 faces (99.5% area) of pressure-outlet 8.
   204  2.4238e-02  1.9607e-03  1.8093e-03  4.8576e-03  2.5794e-03  1.3482e-02  0:00:04   16

 Reversed flow on 728 faces (83.5% area) of pressure-outlet 7.

 Reversed flow on 3621 faces (99.5% area) of pressure-outlet 8.
   205  1.7846e-02  1.1408e-03  1.1827e-03  2.9401e-03  1.3559e-03  9.0773e-03  0:00:03   15

 Reversed flow on 728 faces (83.5% area) of pressure-outlet 7.

 Reversed flow on 3619 faces (99.4% area) of pressure-outlet 8.
   206  1.5075e-02  9.5337e-04  9.7724e-04  1.9004e-03  7.3816e-04  5.1681e-03  0:00:02   14

 Reversed flow on 728 faces (83.5% area) of pressure-outlet 7.

 Reversed flow on 3619 faces (99.4% area) of pressure-outlet 8.
   207  1.3203e-02  7.7550e-04  7.8045e-04  1.2228e-03  4.2618e-04  2.3920e-03  0:00:02   13

 Reversed flow on 728 faces (83.5% area) of pressure-outlet 7.

 Reversed flow on 3618 faces (99.4% area) of pressure-outlet 8.
   208  1.1746e-02  6.8210e-04  7.0329e-04  9.7754e-04  2.5662e-04  1.5446e-03  0:00:01   12

 Reversed flow on 728 faces (83.5% area) of pressure-outlet 7.

 Reversed flow on 3616 faces (99.4% area) of pressure-outlet 8.
   209  1.0041e-02  5.0347e-04  5.2683e-04  7.2890e-04  1.5242e-04  8.9183e-04  0:00:01   11

 Reversed flow on 728 faces (83.5% area) of pressure-outlet 7.

 Reversed flow on 3616 faces (99.4% area) of pressure-outlet 8.
   210  8.6557e-03  3.9720e-04  4.1511e-04  5.5259e-04  1.0821e-04  7.4054e-04  0:00:01   10

 Reversed flow on 728 faces (83.5% area) of pressure-outlet 7.

 Reversed flow on 3616 faces (99.4% area) of pressure-outlet 8.

  iter  continuity  x-velocity  y-velocity  z-velocity           k     epsilon     time/iter
   211  7.4475e-03  3.2500e-04  3.3688e-04  4.3018e-04  7.7953e-05  5.2536e-04  0:00:00    9

 Reversed flow on 728 faces (83.5% area) of pressure-outlet 7.

 Reversed flow on 3616 faces (99.4% area) of pressure-outlet 8.
   212  6.2979e-03  2.6377e-04  2.6606e-04  3.3691e-04  7.5274e-05  5.9894e-04  0:00:02    8

 Reversed flow on 728 faces (83.5% area) of pressure-outlet 7.

 Reversed flow on 3616 faces (99.4% area) of pressure-outlet 8.
   213  5.1010e-03  1.8683e-04  1.8417e-04  2.4474e-04  7.8856e-05  7.7013e-04  0:00:01    7

 Reversed flow on 728 faces (83.5% area) of pressure-outlet 7.

 Reversed flow on 3616 faces (99.4% area) of pressure-outlet 8.
   214  4.3179e-03  1.7164e-04  1.6720e-04  2.1262e-04  7.0410e-05  7.5968e-04  0:00:01    6

 Reversed flow on 728 faces (83.5% area) of pressure-outlet 7.

 Reversed flow on 3616 faces (99.4% area) of pressure-outlet 8.
   215  3.4692e-03  1.2226e-04  1.2331e-04  1.6487e-04  5.7637e-05  6.4496e-04  0:00:01    5

 Reversed flow on 728 faces (83.5% area) of pressure-outlet 7.

 Reversed flow on 3616 faces (99.4% area) of pressure-outlet 8.
   216  2.9117e-03  1.0932e-04  1.1310e-04  1.4545e-04  4.3565e-05  4.9218e-04  0:00:00    4

 Reversed flow on 728 faces (83.5% area) of pressure-outlet 7.

 Reversed flow on 3616 faces (99.4% area) of pressure-outlet 8.
   217  2.3388e-03  7.6958e-05  8.4237e-05  1.1482e-04  3.3536e-05  3.7758e-04  0:00:00    3

 Reversed flow on 728 faces (83.5% area) of pressure-outlet 7.

 Reversed flow on 3616 faces (99.4% area) of pressure-outlet 8.
   218  1.9570e-03  6.9513e-05  7.5838e-05  1.0071e-04  2.5372e-05  2.9030e-04  0:00:00    2

 Reversed flow on 728 faces (83.5% area) of pressure-outlet 7.

 Reversed flow on 3616 faces (99.4% area) of pressure-outlet 8.
   219  1.5762e-03  5.0033e-05  5.5652e-05  8.0148e-05  2.0544e-05  2.4163e-04  0:00:00    1

 Reversed flow on 728 faces (83.5% area) of pressure-outlet 7.

 Reversed flow on 3616 faces (99.4% area) of pressure-outlet 8.
   220  1.3229e-03  4.7058e-05  5.0174e-05  7.0740e-05  1.6918e-05  2.0413e-04  0:00:00    0
Flow time = 0.01221s, time step = 11
79 more time steps

Updating solution at time level N...
 done.

  iter  continuity  x-velocity  y-velocity  z-velocity           k     epsilon     time/iter
   220  1.3229e-03  4.7058e-05  5.0174e-05  7.0740e-05  1.6918e-05  2.0413e-04  0:00:05   20

 Reversed flow on 728 faces (83.5% area) of pressure-outlet 7.

 Reversed flow on 3616 faces (99.4% area) of pressure-outlet 8.
   221  1.2019e-02  7.0008e-03  7.1136e-03  1.3900e-02  2.0262e-02  3.8814e-02  0:00:04   19

 Reversed flow on 728 faces (83.5% area) of pressure-outlet 7.

 Reversed flow on 3602 faces (99.1% area) of pressure-outlet 8.
   222  1.9933e-02  3.4850e-03  3.5239e-03  7.7494e-03  8.8390e-03  1.9734e-02  0:00:03   18

 Reversed flow on 728 faces (83.5% area) of pressure-outlet 7.

 Reversed flow on 3598 faces (99.0% area) of pressure-outlet 8.
   223  2.1278e-02  1.6669e-03  1.6719e-03  4.5278e-03  4.4803e-03  1.5938e-02  0:00:02   17

 Reversed flow on 728 faces (83.5% area) of pressure-outlet 7.

 Reversed flow on 3589 faces (98.8% area) of pressure-outlet 8.
   224  2.6067e-02  2.1477e-03  1.9812e-03  5.1741e-03  2.9667e-03  1.7379e-02  0:00:02   16

 Reversed flow on 728 faces (83.5% area) of pressure-outlet 7.

 Reversed flow on 3577 faces (98.6% area) of pressure-outlet 8.
   225  1.9674e-02  1.2979e-03  1.3729e-03  3.2139e-03  1.4842e-03  1.0220e-02  0:00:01   15

 Reversed flow on 728 faces (83.5% area) of pressure-outlet 7.

 Reversed flow on 3576 faces (98.5% area) of pressure-outlet 8.
   226  1.6464e-02  1.0289e-03  1.0330e-03  2.0301e-03  8.3984e-04  5.8423e-03  0:00:01   14

 Reversed flow on 728 faces (83.5% area) of pressure-outlet 7.

 Reversed flow on 3569 faces (98.4% area) of pressure-outlet 8.
   227  1.3982e-02  8.2517e-04  8.2405e-04  1.3283e-03  5.1550e-04  3.0426e-03  0:00:03   13

 Reversed flow on 728 faces (83.5% area) of pressure-outlet 7.

 Reversed flow on 3565 faces (98.3% area) of pressure-outlet 8.
   228  1.1994e-02  6.5608e-04  6.8701e-04  1.0116e-03  3.1576e-04  1.9627e-03  0:00:02   12

 Reversed flow on 728 faces (83.5% area) of pressure-outlet 7.

 Reversed flow on 3565 faces (98.3% area) of pressure-outlet 8.
   229  1.0374e-02  5.2948e-04  5.6762e-04  7.8191e-04  2.1151e-04  1.6444e-03  0:00:02   11

 Reversed flow on 728 faces (83.5% area) of pressure-outlet 7.

 Reversed flow on 3564 faces (98.2% area) of pressure-outlet 8.
   230  9.0190e-03  4.2629e-04  4.5161e-04  6.0142e-04  1.5212e-04  1.2810e-03  0:00:01   10

 Reversed flow on 728 faces (83.5% area) of pressure-outlet 7.

 Reversed flow on 3564 faces (98.2% area) of pressure-outlet 8.

  iter  continuity  x-velocity  y-velocity  z-velocity           k     epsilon     time/iter
   231  7.7515e-03  3.4683e-04  3.6454e-04  4.7490e-04  1.1239e-04  9.0555e-04  0:00:01    9

 Reversed flow on 728 faces (83.5% area) of pressure-outlet 7.

 Reversed flow on 3564 faces (98.2% area) of pressure-outlet 8.
   232  6.5567e-03  2.8283e-04  2.8535e-04  3.7241e-04  1.0332e-04  8.0845e-04  0:00:01    8

 Reversed flow on 728 faces (83.5% area) of pressure-outlet 7.

 Reversed flow on 3564 faces (98.2% area) of pressure-outlet 8.
   233  5.4656e-03  2.2775e-04  2.2579e-04  2.9347e-04  1.0331e-04  9.7648e-04  0:00:00    7

 Reversed flow on 728 faces (83.5% area) of pressure-outlet 7.

 Reversed flow on 3564 faces (98.2% area) of pressure-outlet 8.
   234  4.3896e-03  1.6322e-04  1.5999e-04  2.1737e-04  8.8803e-05  9.0925e-04  0:00:00    6

 Reversed flow on 728 faces (83.5% area) of pressure-outlet 7.

 Reversed flow on 3564 faces (98.2% area) of pressure-outlet 8.
   235  3.6916e-03  1.4638e-04  1.4690e-04  1.8930e-04  6.7735e-05  7.1354e-04  0:00:01    5

 Reversed flow on 728 faces (83.5% area) of pressure-outlet 7.

 Reversed flow on 3564 faces (98.2% area) of pressure-outlet 8.
   236  2.9566e-03  1.0350e-04  1.0932e-04  1.4641e-04  5.0848e-05  5.4056e-04  0:00:01    4

 Reversed flow on 728 faces (83.5% area) of pressure-outlet 7.

 Reversed flow on 3564 faces (98.2% area) of pressure-outlet 8.
   237  2.4718e-03  9.1855e-05  9.9526e-05  1.2811e-04  3.7094e-05  3.8920e-04  0:00:00    3

 Reversed flow on 728 faces (83.5% area) of pressure-outlet 7.

 Reversed flow on 3564 faces (98.2% area) of pressure-outlet 8.
   238  1.9880e-03  6.5237e-05  7.3583e-05  1.0067e-04  2.8789e-05  2.9858e-04  0:00:00    2

 Reversed flow on 728 faces (83.5% area) of pressure-outlet 7.

 Reversed flow on 3564 faces (98.2% area) of pressure-outlet 8.
   239  1.6594e-03  5.9496e-05  6.5302e-05  8.8742e-05  2.1353e-05  2.1871e-04  0:00:00    1

 Reversed flow on 728 faces (83.5% area) of pressure-outlet 7.

 Reversed flow on 3564 faces (98.2% area) of pressure-outlet 8.
   240  1.3393e-03  4.3082e-05  4.7617e-05  7.0833e-05  1.6990e-05  1.7103e-04  0:00:00    0
Flow time = 0.01332s, time step = 12
78 more time steps

Updating solution at time level N...
 done.

  iter  continuity  x-velocity  y-velocity  z-velocity           k     epsilon     time/iter
   240  1.3393e-03  4.3082e-05  4.7617e-05  7.0833e-05  1.6990e-05  1.7103e-04  0:00:02   20

 Reversed flow on 728 faces (83.5% area) of pressure-outlet 7.

 Reversed flow on 3565 faces (98.3% area) of pressure-outlet 8.
   241  1.2580e-02  7.4653e-03  7.7045e-03  1.4360e-02  2.0788e-02  3.9336e-02  0:00:01   19

 Reversed flow on 728 faces (83.5% area) of pressure-outlet 7.

 Reversed flow on 3542 faces (97.6% area) of pressure-outlet 8.
   242  2.0657e-02  3.6757e-03  3.7835e-03  7.9396e-03  9.0811e-03  2.0141e-02  0:00:01   18

 Reversed flow on 728 faces (83.5% area) of pressure-outlet 7.

 Reversed flow on 3534 faces (97.3% area) of pressure-outlet 8.
   243  2.2025e-02  1.7575e-03  1.8016e-03  4.6216e-03  4.8926e-03  1.9394e-02  0:00:01   17

 Reversed flow on 729 faces (83.7% area) of pressure-outlet 7.

 Reversed flow on 3518 faces (96.9% area) of pressure-outlet 8.
   244  2.6998e-02  2.3005e-03  2.1343e-03  5.3966e-03  3.3946e-03  2.0768e-02  0:00:01   16

 Reversed flow on 729 faces (83.7% area) of pressure-outlet 7.

 Reversed flow on 3505 faces (96.5% area) of pressure-outlet 8.
   245  2.0931e-02  1.4154e-03  1.4778e-03  3.4599e-03  1.6991e-03  1.1880e-02  0:00:00   15

 Reversed flow on 729 faces (83.7% area) of pressure-outlet 7.

 Reversed flow on 3504 faces (96.5% area) of pressure-outlet 8.
   246  1.7849e-02  1.0961e-03  1.1165e-03  2.2288e-03  1.0310e-03  6.8577e-03  0:00:00   14

 Reversed flow on 729 faces (83.7% area) of pressure-outlet 7.

 Reversed flow on 3495 faces (96.2% area) of pressure-outlet 8.
   247  1.5098e-02  8.7553e-04  8.9229e-04  1.5453e-03  6.7619e-04  4.1064e-03  0:00:00   13

 Reversed flow on 729 faces (83.7% area) of pressure-outlet 7.

 Reversed flow on 3488 faces (96.0% area) of pressure-outlet 8.
   248  1.2893e-02  7.1800e-04  7.5737e-04  1.1014e-03  3.9831e-04  2.6480e-03  0:00:03   12

 Reversed flow on 729 faces (83.7% area) of pressure-outlet 7.

 Reversed flow on 3488 faces (96.0% area) of pressure-outlet 8.
   249  1.1002e-02  5.7727e-04  6.0887e-04  8.5487e-04  2.4680e-04  1.8390e-03  0:00:02   11

 Reversed flow on 729 faces (83.7% area) of pressure-outlet 7.

 Reversed flow on 3491 faces (96.1% area) of pressure-outlet 8.
   250  9.6817e-03  4.7138e-04  4.9310e-04  6.8468e-04  1.7849e-04  1.3299e-03  0:00:01   10

 Reversed flow on 729 faces (83.7% area) of pressure-outlet 7.

 Reversed flow on 3493 faces (96.1% area) of pressure-outlet 8.

  iter  continuity  x-velocity  y-velocity  z-velocity           k     epsilon     time/iter
   251  8.4885e-03  3.9812e-04  4.0435e-04  5.5442e-04  1.4906e-04  9.7536e-04  0:00:01    9

 Reversed flow on 729 faces (83.7% area) of pressure-outlet 7.

 Reversed flow on 3493 faces (96.1% area) of pressure-outlet 8.
   252  7.5373e-03  3.2712e-04  3.1902e-04  4.4822e-04  1.7055e-04  1.4033e-03  0:00:01    8

 Reversed flow on 729 faces (83.7% area) of pressure-outlet 7.

 Reversed flow on 3492 faces (96.1% area) of pressure-outlet 8.
   253  6.3497e-03  2.7074e-04  2.7433e-04  4.1170e-04  1.4673e-04  1.2963e-03  0:00:00    7

 Reversed flow on 729 faces (83.7% area) of pressure-outlet 7.

 Reversed flow on 3492 faces (96.1% area) of pressure-outlet 8.
   254  5.0035e-03  2.1902e-04  2.1505e-04  2.8454e-04  1.1282e-04  1.0069e-03  0:00:00    6

 Reversed flow on 729 faces (83.7% area) of pressure-outlet 7.

 Reversed flow on 3492 faces (96.1% area) of pressure-outlet 8.
   255  4.1884e-03  1.7388e-04  1.6660e-04  2.5408e-04  9.2067e-05  8.2259e-04  0:00:00    5

 Reversed flow on 729 faces (83.7% area) of pressure-outlet 7.

 Reversed flow on 3493 faces (96.1% area) of pressure-outlet 8.
   256  3.6924e-03  1.4868e-04  1.4895e-04  2.2993e-04  8.3196e-05  7.5589e-04  0:00:01    4

 Reversed flow on 729 faces (83.7% area) of pressure-outlet 7.

 Reversed flow on 3493 faces (96.1% area) of pressure-outlet 8.
   257  3.3133e-03  1.2729e-04  1.2992e-04  2.1490e-04  9.0074e-05  7.8846e-04  0:00:01    3

 Reversed flow on 729 faces (83.7% area) of pressure-outlet 7.

 Reversed flow on 3492 faces (96.1% area) of pressure-outlet 8.
   258  2.8110e-03  1.0874e-04  1.1932e-04  2.3126e-04  6.2555e-05  5.4459e-04  0:00:00    2

 Reversed flow on 729 faces (83.7% area) of pressure-outlet 7.

 Reversed flow on 3492 faces (96.1% area) of pressure-outlet 8.
   259  2.1206e-03  1.0320e-04  1.0915e-04  1.5359e-04  4.2710e-05  3.1173e-04  0:00:00    1

 Reversed flow on 729 faces (83.7% area) of pressure-outlet 7.

 Reversed flow on 3492 faces (96.1% area) of pressure-outlet 8.
   260  1.7541e-03  6.2897e-05  6.0391e-05  1.2639e-04  3.5557e-05  2.3827e-04  0:00:00    0
Flow time = 0.01443s, time step = 13
77 more time steps

Updating solution at time level N...
 done.

  iter  continuity  x-velocity  y-velocity  z-velocity           k     epsilon     time/iter
   260  1.7541e-03  6.2897e-05  6.0391e-05  1.2639e-04  3.5557e-05  2.3827e-04  0:00:02   20

 Reversed flow on 729 faces (83.7% area) of pressure-outlet 7.

 Reversed flow on 3493 faces (96.1% area) of pressure-outlet 8.
   261  1.3517e-02  7.8367e-03  8.1875e-03  1.4719e-02  2.1229e-02  3.8443e-02  0:00:01   19

 Reversed flow on 729 faces (83.7% area) of pressure-outlet 7.

 Reversed flow on 3482 faces (95.8% area) of pressure-outlet 8.
   262  2.1908e-02  3.8279e-03  4.0059e-03  8.0816e-03  9.3190e-03  1.9562e-02  0:00:01   18

 Reversed flow on 729 faces (83.7% area) of pressure-outlet 7.

 Reversed flow on 3481 faces (95.7% area) of pressure-outlet 8.
   263  2.3216e-02  1.8411e-03  1.9069e-03  4.6796e-03  5.2644e-03  2.1115e-02  0:00:04   17

 Reversed flow on 729 faces (83.7% area) of pressure-outlet 7.

 Reversed flow on 3454 faces (95.0% area) of pressure-outlet 8.
   264  2.8170e-02  2.4086e-03  2.2464e-03  5.5257e-03  3.8346e-03  2.3075e-02  0:00:03   16

 Reversed flow on 729 faces (83.7% area) of pressure-outlet 7.

 Reversed flow on 3428 faces (94.3% area) of pressure-outlet 8.
   265  2.2321e-02  1.4955e-03  1.5944e-03  3.6429e-03  1.9117e-03  1.2635e-02  0:00:02   15

 Reversed flow on 729 faces (83.7% area) of pressure-outlet 7.

 Reversed flow on 3426 faces (94.2% area) of pressure-outlet 8.
   266  1.8546e-02  1.1528e-03  1.1959e-03  2.3259e-03  1.1856e-03  7.3601e-03  0:00:02   14

 Reversed flow on 729 faces (83.7% area) of pressure-outlet 7.

 Reversed flow on 3419 faces (94.0% area) of pressure-outlet 8.
   267  1.5817e-02  8.8964e-04  9.1336e-04  1.5287e-03  8.4323e-04  5.1000e-03  0:00:01   13

 Reversed flow on 729 faces (83.7% area) of pressure-outlet 7.

 Reversed flow on 3413 faces (93.8% area) of pressure-outlet 8.
   268  1.3582e-02  7.2841e-04  7.5493e-04  1.1647e-03  5.2955e-04  3.6434e-03  0:00:01   12

 Reversed flow on 729 faces (83.7% area) of pressure-outlet 7.

 Reversed flow on 3412 faces (93.8% area) of pressure-outlet 8.
   269  1.1582e-02  5.8487e-04  6.1236e-04  9.0673e-04  2.9204e-04  2.0009e-03  0:00:01   11

 Reversed flow on 729 faces (83.7% area) of pressure-outlet 7.

[...]
  1722  1.2485e-02  5.8380e-04  5.0770e-04  4.4469e-03  5.8986e-03  1.1188e-02  0:00:01   18

 Reversed flow on 705 faces (81.3% area) of pressure-outlet 7.

 Reversed flow on 3656 faces (100.0% area) of pressure-outlet 8.
  1723  1.3743e-02  3.3606e-04  2.9919e-04  2.7978e-03  3.0441e-03  6.2854e-03  0:00:01   17

 Reversed flow on 705 faces (81.3% area) of pressure-outlet 7.

 Reversed flow on 3656 faces (100.0% area) of pressure-outlet 8.
  1724  1.7596e-02  6.9216e-04  6.4817e-04  2.6012e-03  1.7678e-03  4.2324e-03  0:00:00   16

 Reversed flow on 705 faces (81.3% area) of pressure-outlet 7.

 Reversed flow on 3656 faces (100.0% area) of pressure-outlet 8.
  1725  1.3293e-02  4.2234e-04  4.1037e-04  1.6399e-03  9.9739e-04  2.4608e-03  0:00:00   15

 Reversed flow on 705 faces (81.3% area) of pressure-outlet 7.

 Reversed flow on 3656 faces (100.0% area) of pressure-outlet 8.
  1726  1.0415e-02  2.7990e-04  2.7025e-04  1.0437e-03  5.9249e-04  1.5127e-03  0:00:00   14

 Reversed flow on 705 faces (81.3% area) of pressure-outlet 7.

 Reversed flow on 3656 faces (100.0% area) of pressure-outlet 8.
  1727  8.4797e-03  2.0294e-04  1.9901e-04  6.9392e-04  3.6296e-04  8.8435e-04  0:00:00   13

 Reversed flow on 705 faces (81.3% area) of pressure-outlet 7.

 Reversed flow on 3656 faces (100.0% area) of pressure-outlet 8.
  1728  7.1858e-03  1.5495e-04  1.5533e-04  4.8466e-04  2.3545e-04  5.5462e-04  0:00:03   12

 Reversed flow on 705 faces (81.3% area) of pressure-outlet 7.

 Reversed flow on 3656 faces (100.0% area) of pressure-outlet 8.
  1729  6.0443e-03  1.2447e-04  1.2975e-04  3.4504e-04  1.6840e-04  4.3425e-04  0:00:02   11

 Reversed flow on 705 faces (81.3% area) of pressure-outlet 7.

 Reversed flow on 3656 faces (100.0% area) of pressure-outlet 8.
  1730  5.0491e-03  9.8596e-05  1.0741e-04  2.5813e-04  1.1924e-04  3.2701e-04  0:00:01   10

 Reversed flow on 705 faces (81.3% area) of pressure-outlet 7.

 Reversed flow on 3656 faces (100.0% area) of pressure-outlet 8.

  iter  continuity  x-velocity  y-velocity  z-velocity           k     epsilon     time/iter
  1731  4.3063e-03  8.1637e-05  8.8336e-05  1.9185e-04  8.2819e-05  2.2727e-04  0:00:01    9

 Reversed flow on 705 faces (81.3% area) of pressure-outlet 7.

 Reversed flow on 3656 faces (100.0% area) of pressure-outlet 8.
  1732  3.6780e-03  6.9067e-05  7.3345e-05  1.4695e-04  5.6777e-05  1.4967e-04  0:00:01    8

 Reversed flow on 705 faces (81.3% area) of pressure-outlet 7.

 Reversed flow on 3656 faces (100.0% area) of pressure-outlet 8.
  1733  3.0891e-03  6.0153e-05  6.1928e-05  1.1073e-04  3.8622e-05  9.4384e-05  0:00:00    7

 Reversed flow on 705 faces (81.3% area) of pressure-outlet 7.

 Reversed flow on 3656 faces (100.0% area) of pressure-outlet 8.
  1734  2.5858e-03  5.1341e-05  5.1598e-05  8.6420e-05  2.8543e-05  7.1520e-05  0:00:00    6

 Reversed flow on 705 faces (81.3% area) of pressure-outlet 7.

 Reversed flow on 3656 faces (100.0% area) of pressure-outlet 8.
  1735  2.1505e-03  4.2532e-05  4.2003e-05  6.7152e-05  2.1480e-05  5.7747e-05  0:00:00    5

 Reversed flow on 705 faces (81.3% area) of pressure-outlet 7.

 Reversed flow on 3656 faces (100.0% area) of pressure-outlet 8.
  1736  1.7859e-03  3.4182e-05  3.4123e-05  5.4061e-05  1.6229e-05  4.6728e-05  0:00:01    4

 Reversed flow on 705 faces (81.3% area) of pressure-outlet 7.

 Reversed flow on 3656 faces (100.0% area) of pressure-outlet 8.
  1737  1.4756e-03  2.7432e-05  2.7318e-05  4.3273e-05  1.2201e-05  3.7061e-05  0:00:01    3

 Reversed flow on 705 faces (81.3% area) of pressure-outlet 7.

 Reversed flow on 3656 faces (100.0% area) of pressure-outlet 8.
  1738  1.2157e-03  2.1674e-05  2.2097e-05  3.5611e-05  9.1720e-06  2.9255e-05  0:00:00    2

 Reversed flow on 705 faces (81.3% area) of pressure-outlet 7.

 Reversed flow on 3656 faces (100.0% area) of pressure-outlet 8.
! 1739 solution is converged
  1739  9.9279e-04  1.7006e-05  1.7488e-05  2.8880e-05  6.8345e-06  2.2577e-05  0:00:00    1
Flow time = 0.09657s, time step = 87
3 more time steps

Updating solution at time level N...
 done.

  iter  continuity  x-velocity  y-velocity  z-velocity           k     epsilon     time/iter
! 1739 solution is converged
  1739  9.9279e-04  1.7006e-05  1.7488e-05  2.8880e-05  6.8345e-06  2.2577e-05  0:00:02   20

 Reversed flow on 705 faces (81.3% area) of pressure-outlet 7.

 Reversed flow on 3656 faces (100.0% area) of pressure-outlet 8.
  1740  8.4649e-03  1.0504e-03  8.8556e-04  7.6047e-03  1.2855e-02  2.2886e-02  0:00:02   19

 Reversed flow on 705 faces (81.3% area) of pressure-outlet 7.

 Reversed flow on 3656 faces (100.0% area) of pressure-outlet 8.
  1741  1.2183e-02  6.0456e-04  5.3379e-04  4.6461e-03  6.0797e-03  1.1488e-02  0:00:01   18

 Reversed flow on 705 faces (81.3% area) of pressure-outlet 7.

 Reversed flow on 3656 faces (100.0% area) of pressure-outlet 8.
  1742  1.3469e-02  3.4715e-04  3.1556e-04  2.8879e-03  3.0709e-03  6.2026e-03  0:00:01   17

 Reversed flow on 705 faces (81.3% area) of pressure-outlet 7.

 Reversed flow on 3656 faces (100.0% area) of pressure-outlet 8.
  1743  1.6969e-02  6.5351e-04  6.0740e-04  2.5685e-03  1.7131e-03  3.8250e-03  0:00:04   16

 Reversed flow on 705 faces (81.3% area) of pressure-outlet 7.

 Reversed flow on 3656 faces (100.0% area) of pressure-outlet 8.
  1744  1.2653e-02  3.7577e-04  3.6757e-04  1.5967e-03  9.5214e-04  2.1761e-03  0:00:03   15

 Reversed flow on 705 faces (81.3% area) of pressure-outlet 7.

 Reversed flow on 3656 faces (100.0% area) of pressure-outlet 8.
  1745  9.9749e-03  2.6731e-04  2.5599e-04  1.0171e-03  5.5919e-04  1.3202e-03  0:00:02   14

 Reversed flow on 705 faces (81.3% area) of pressure-outlet 7.

 Reversed flow on 3656 faces (100.0% area) of pressure-outlet 8.
  1746  8.3485e-03  2.0093e-04  1.9747e-04  6.8224e-04  3.3831e-04  7.8259e-04  0:00:02   13

 Reversed flow on 705 faces (81.3% area) of pressure-outlet 7.

 Reversed flow on 3656 faces (100.0% area) of pressure-outlet 8.
  1747  7.0197e-03  1.5309e-04  1.5153e-04  4.7163e-04  2.1520e-04  4.8156e-04  0:00:01   12

 Reversed flow on 705 faces (81.3% area) of pressure-outlet 7.

 Reversed flow on 3656 faces (100.0% area) of pressure-outlet 8.
  1748  5.9286e-03  1.2233e-04  1.2797e-04  3.3069e-04  1.4783e-04  3.3811e-04  0:00:01   11

 Reversed flow on 705 faces (81.3% area) of pressure-outlet 7.

 Reversed flow on 3656 faces (100.0% area) of pressure-outlet 8.
  1749  4.9717e-03  9.7862e-05  1.0709e-04  2.4369e-04  1.0250e-04  2.4560e-04  0:00:01   10

 Reversed flow on 705 faces (81.3% area) of pressure-outlet 7.

 Reversed flow on 3656 faces (100.0% area) of pressure-outlet 8.

  iter  continuity  x-velocity  y-velocity  z-velocity           k     epsilon     time/iter
  1750  4.1730e-03  7.7886e-05  8.5776e-05  1.7786e-04  7.1022e-05  1.7275e-04  0:00:02    9

 Reversed flow on 705 faces (81.3% area) of pressure-outlet 7.

 Reversed flow on 3656 faces (100.0% area) of pressure-outlet 8.
  1751  3.5537e-03  6.6117e-05  7.0943e-05  1.3758e-04  4.9047e-05  1.1698e-04  0:00:02    8

 Reversed flow on 705 faces (81.3% area) of pressure-outlet 7.

 Reversed flow on 3656 faces (100.0% area) of pressure-outlet 8.
  1752  2.9890e-03  5.7046e-05  5.8887e-05  1.0440e-04  3.3846e-05  7.8109e-05  0:00:01    7

 Reversed flow on 705 faces (81.3% area) of pressure-outlet 7.

 Reversed flow on 3656 faces (100.0% area) of pressure-outlet 8.
  1753  2.4961e-03  4.8408e-05  4.8556e-05  8.1380e-05  2.4532e-05  5.6907e-05  0:00:01    6

 Reversed flow on 705 faces (81.3% area) of pressure-outlet 7.

 Reversed flow on 3656 faces (100.0% area) of pressure-outlet 8.
  1754  2.0685e-03  4.0097e-05  3.9308e-05  6.3169e-05  1.8104e-05  4.4696e-05  0:00:01    5

 Reversed flow on 705 faces (81.3% area) of pressure-outlet 7.

 Reversed flow on 3656 faces (100.0% area) of pressure-outlet 8.
  1755  1.7140e-03  3.2237e-05  3.2079e-05  5.1090e-05  1.3380e-05  3.5003e-05  0:00:00    4

 Reversed flow on 705 faces (81.3% area) of pressure-outlet 7.

 Reversed flow on 3656 faces (100.0% area) of pressure-outlet 8.
  1756  1.4141e-03  2.5724e-05  2.5752e-05  4.1029e-05  9.8216e-06  2.6636e-05  0:00:00    3

 Reversed flow on 705 faces (81.3% area) of pressure-outlet 7.

 Reversed flow on 3656 faces (100.0% area) of pressure-outlet 8.
  1757  1.1643e-03  2.0336e-05  2.0815e-05  3.3833e-05  7.2240e-06  2.0216e-05  0:00:00    2

 Reversed flow on 705 faces (81.3% area) of pressure-outlet 7.

 Reversed flow on 3656 faces (100.0% area) of pressure-outlet 8.
! 1758 solution is converged
  1758  9.5515e-04  1.6131e-05  1.6769e-05  2.7913e-05  5.2932e-06  1.5119e-05  0:00:00    1
Flow time = 0.09768s, time step = 88
2 more time steps

Updating solution at time level N...
 done.

  iter  continuity  x-velocity  y-velocity  z-velocity           k     epsilon     time/iter
! 1758 solution is converged
  1758  9.5515e-04  1.6131e-05  1.6769e-05  2.7913e-05  5.2932e-06  1.5119e-05  0:00:05   20

 Reversed flow on 705 faces (81.3% area) of pressure-outlet 7.

 Reversed flow on 3656 faces (100.0% area) of pressure-outlet 8.
  1759  8.4222e-03  1.1115e-03  9.4171e-04  8.0085e-03  1.3361e-02  2.3583e-02  0:00:04   19

 Reversed flow on 705 faces (81.3% area) of pressure-outlet 7.

 Reversed flow on 3656 faces (100.0% area) of pressure-outlet 8.
  1760  1.2182e-02  6.3628e-04  5.6615e-04  4.8442e-03  6.2357e-03  1.1670e-02  0:00:03   18

 Reversed flow on 705 faces (81.3% area) of pressure-outlet 7.

 Reversed flow on 3656 faces (100.0% area) of pressure-outlet 8.
  1761  1.3487e-02  3.6249e-04  3.3183e-04  2.9754e-03  3.0953e-03  6.1486e-03  0:00:02   17

 Reversed flow on 705 faces (81.3% area) of pressure-outlet 7.

 Reversed flow on 3656 faces (100.0% area) of pressure-outlet 8.
  1762  1.6303e-02  6.2376e-04  5.7806e-04  2.5317e-03  1.6612e-03  3.4989e-03  0:00:02   16

 Reversed flow on 705 faces (81.3% area) of pressure-outlet 7.

 Reversed flow on 3656 faces (100.0% area) of pressure-outlet 8.
  1763  1.2277e-02  3.6030e-04  3.5428e-04  1.5625e-03  9.1081e-04  1.9575e-03  0:00:01   15

 Reversed flow on 705 faces (81.3% area) of pressure-outlet 7.

 Reversed flow on 3656 faces (100.0% area) of pressure-outlet 8.
  1764  9.6517e-03  2.4978e-04  2.4092e-04  9.8032e-04  5.2474e-04  1.1507e-03  0:00:01   14

 Reversed flow on 705 faces (81.3% area) of pressure-outlet 7.

 Reversed flow on 3656 faces (100.0% area) of pressure-outlet 8.
  1765  7.8480e-03  1.8748e-04  1.8362e-04  6.4329e-04  3.1501e-04  6.8097e-04  0:00:03   13

 Reversed flow on 705 faces (81.3% area) of pressure-outlet 7.

 Reversed flow on 3656 faces (100.0% area) of pressure-outlet 8.
  1766  6.9146e-03  1.6029e-04  1.6046e-04  4.6696e-04  1.9986e-04  4.2304e-04  0:00:02   12

 Reversed flow on 705 faces (81.3% area) of pressure-outlet 7.

 Reversed flow on 3656 faces (100.0% area) of pressure-outlet 8.
  1767  5.6428e-03  1.1526e-04  1.1930e-04  3.1211e-04  1.3334e-04  2.8576e-04  0:00:02   11

 Reversed flow on 705 faces (81.3% area) of pressure-outlet 7.

 Reversed flow on 3656 faces (100.0% area) of pressure-outlet 8.
  1768  4.6654e-03  8.8532e-05  9.7478e-05  2.2312e-04  9.1016e-05  2.0175e-04  0:00:01   10

 Reversed flow on 705 faces (81.3% area) of pressure-outlet 7.

 Reversed flow on 3656 faces (100.0% area) of pressure-outlet 8.

  iter  continuity  x-velocity  y-velocity  z-velocity           k     epsilon     time/iter
  1769  3.9080e-03  7.2725e-05  7.9304e-05  1.6450e-04  6.2230e-05  1.3723e-04  0:00:01    9

 Reversed flow on 705 faces (81.3% area) of pressure-outlet 7.

 Reversed flow on 3656 faces (100.0% area) of pressure-outlet 8.
  1770  3.3158e-03  6.2533e-05  6.6575e-05  1.2857e-04  4.2967e-05  9.4017e-05  0:00:01    8

 Reversed flow on 705 faces (81.3% area) of pressure-outlet 7.

 Reversed flow on 3656 faces (100.0% area) of pressure-outlet 8.
  1771  2.7936e-03  5.4065e-05  5.5866e-05  9.9212e-05  3.0544e-05  6.5435e-05  0:00:00    7

 Reversed flow on 705 faces (81.3% area) of pressure-outlet 7.

 Reversed flow on 3656 faces (100.0% area) of pressure-outlet 8.
  1772  2.4130e-03  5.1756e-05  5.2085e-05  8.4509e-05  2.1859e-05  4.8797e-05  0:00:00    6

 Reversed flow on 705 faces (81.3% area) of pressure-outlet 7.

 Reversed flow on 3656 faces (100.0% area) of pressure-outlet 8.
  1773  1.9917e-03  3.9777e-05  3.9012e-05  6.4738e-05  1.5985e-05  3.6997e-05  0:00:01    5

 Reversed flow on 705 faces (81.3% area) of pressure-outlet 7.

 Reversed flow on 3656 faces (100.0% area) of pressure-outlet 8.
  1774  1.6575e-03  3.1955e-05  3.1220e-05  5.3329e-05  1.1906e-05  2.8722e-05  0:00:01    4

 Reversed flow on 705 faces (81.3% area) of pressure-outlet 7.

 Reversed flow on 3656 faces (100.0% area) of pressure-outlet 8.
  1775  1.3814e-03  2.6138e-05  2.5532e-05  4.4708e-05  9.0256e-06  2.2668e-05  0:00:00    3

 Reversed flow on 705 faces (81.3% area) of pressure-outlet 7.

 Reversed flow on 3656 faces (100.0% area) of pressure-outlet 8.
  1776  1.1502e-03  2.1379e-05  2.1195e-05  3.8608e-05  6.9991e-06  1.8233e-05  0:00:00    2

 Reversed flow on 705 faces (81.3% area) of pressure-outlet 7.

 Reversed flow on 3656 faces (100.0% area) of pressure-outlet 8.
! 1777 solution is converged
  1777  9.6008e-04  1.7690e-05  1.7829e-05  3.3629e-05  5.5167e-06  1.4726e-05  0:00:00    1
Flow time = 0.09879s, time step = 89
1 more time step

Updating solution at time level N...
 done.

  iter  continuity  x-velocity  y-velocity  z-velocity           k     epsilon     time/iter
! 1777 solution is converged
  1777  9.6008e-04  1.7690e-05  1.7829e-05  3.3629e-05  5.5167e-06  1.4726e-05  0:00:02   20

 Reversed flow on 705 faces (81.3% area) of pressure-outlet 7.

 Reversed flow on 3656 faces (100.0% area) of pressure-outlet 8.
  1778  8.3927e-03  1.1816e-03  1.0053e-03  8.4067e-03  1.3827e-02  2.4139e-02  0:00:02   19

 Reversed flow on 705 faces (81.3% area) of pressure-outlet 7.

 Reversed flow on 3656 faces (100.0% area) of pressure-outlet 8.
  1779  1.2187e-02  6.7115e-04  6.0115e-04  5.0328e-03  6.3672e-03  1.1775e-02  0:00:01   18

 Reversed flow on 705 faces (81.3% area) of pressure-outlet 7.

 Reversed flow on 3656 faces (100.0% area) of pressure-outlet 8.
  1780  1.3460e-02  3.8081e-04  3.5307e-04  3.0543e-03  3.1036e-03  6.0434e-03  0:00:04   17

 Reversed flow on 705 faces (81.3% area) of pressure-outlet 7.

 Reversed flow on 3656 faces (100.0% area) of pressure-outlet 8.
  1781  1.5295e-02  5.7571e-04  5.2981e-04  2.4456e-03  1.6137e-03  3.2566e-03  0:00:03   16

 Reversed flow on 705 faces (81.3% area) of pressure-outlet 7.

 Reversed flow on 3656 faces (100.0% area) of pressure-outlet 8.
  1782  1.1271e-02  3.2420e-04  3.2053e-04  1.4836e-03  8.6942e-04  1.7773e-03  0:00:02   15

 Reversed flow on 705 faces (81.3% area) of pressure-outlet 7.

 Reversed flow on 3656 faces (100.0% area) of pressure-outlet 8.
  1783  9.0610e-03  2.2947e-04  2.2594e-04  9.4001e-04  4.9174e-04  1.0149e-03  0:00:02   14

 Reversed flow on 705 faces (81.3% area) of pressure-outlet 7.

 Reversed flow on 3656 faces (100.0% area) of pressure-outlet 8.
  1784  7.5809e-03  1.7750e-04  1.7890e-04  6.2022e-04  2.9374e-04  5.9954e-04  0:00:01   13

 Reversed flow on 705 faces (81.3% area) of pressure-outlet 7.

 Reversed flow on 3656 faces (100.0% area) of pressure-outlet 8.
  1785  6.4197e-03  1.3890e-04  1.4091e-04  4.1922e-04  1.8347e-04  3.6984e-04  0:00:01   12

 Reversed flow on 705 faces (81.3% area) of pressure-outlet 7.

 Reversed flow on 3656 faces (100.0% area) of pressure-outlet 8.
  1786  5.3876e-03  1.0936e-04  1.1451e-04  2.9115e-04  1.1938e-04  2.4015e-04  0:00:03   11

 Reversed flow on 705 faces (81.3% area) of pressure-outlet 7.

 Reversed flow on 3656 faces (100.0% area) of pressure-outlet 8.
  1787  4.4895e-03  8.9177e-05  9.5195e-05  2.0768e-04  7.9932e-05  1.6256e-04  0:00:02   10

 Reversed flow on 705 faces (81.3% area) of pressure-outlet 7.

 Reversed flow on 3656 faces (100.0% area) of pressure-outlet 8.

  iter  continuity  x-velocity  y-velocity  z-velocity           k     epsilon     time/iter
  1788  3.7645e-03  7.3376e-05  7.8141e-05  1.5246e-04  5.4315e-05  1.1185e-04  0:00:02    9

 Reversed flow on 705 faces (81.3% area) of pressure-outlet 7.

 Reversed flow on 3656 faces (100.0% area) of pressure-outlet 8.
  1789  3.1580e-03  6.1011e-05  6.4085e-05  1.1668e-04  3.7494e-05  7.6740e-05  0:00:01    8

 Reversed flow on 705 faces (81.3% area) of pressure-outlet 7.

 Reversed flow on 3656 faces (100.0% area) of pressure-outlet 8.
  1790  2.7208e-03  5.8526e-05  5.9809e-05  9.4673e-05  2.5990e-05  5.3342e-05  0:00:01    7

 Reversed flow on 705 faces (81.3% area) of pressure-outlet 7.

 Reversed flow on 3656 faces (100.0% area) of pressure-outlet 8.
  1791  2.2513e-03  4.5447e-05  4.6052e-05  7.0672e-05  1.8375e-05  3.8976e-05  0:00:01    6

 Reversed flow on 705 faces (81.3% area) of pressure-outlet 7.

 Reversed flow on 3656 faces (100.0% area) of pressure-outlet 8.
  1792  1.8777e-03  3.6738e-05  3.6739e-05  5.6762e-05  1.3107e-05  2.8788e-05  0:00:00    5

 Reversed flow on 705 faces (81.3% area) of pressure-outlet 7.

 Reversed flow on 3656 faces (100.0% area) of pressure-outlet 8.
  1793  1.5625e-03  2.9777e-05  2.9611e-05  4.6003e-05  9.3754e-06  2.1084e-05  0:00:00    4

 Reversed flow on 705 faces (81.3% area) of pressure-outlet 7.

 Reversed flow on 3656 faces (100.0% area) of pressure-outlet 8.
  1794  1.2955e-03  2.3933e-05  2.3817e-05  3.7928e-05  6.7192e-06  1.5411e-05  0:00:01    3

 Reversed flow on 705 faces (81.3% area) of pressure-outlet 7.

 Reversed flow on 3656 faces (100.0% area) of pressure-outlet 8.
  1795  1.0684e-03  1.9098e-05  1.9184e-05  3.1583e-05  4.8137e-06  1.1194e-05  0:00:00    2

 Reversed flow on 705 faces (81.3% area) of pressure-outlet 7.

 Reversed flow on 3656 faces (100.0% area) of pressure-outlet 8.
! 1796 solution is converged
  1796  8.7926e-04  1.5251e-05  1.5442e-05  2.6601e-05  3.4728e-06  8.1650e-06  0:00:00    1
Flow time = 0.0999s, time step = 90
Registering Udf, ("G:\my works new\Ansys\4th Year Project\Parameteric Model\inlet_motion_11_0.c")
Writing "| gzip -2cf > SolutionMonitor.gz"...
Writing temporary file C:\\Users\\LINJO\\AppData\\Local\\Temp\\flntgz-96365 ...
Done.

Writing data to G:\\my works new\\Ansys\\4th Year Project\\Parameteric Model\\Acoustic Fire Extinguisher_files\\dp1\\FFF-1\\Fluent\\FFF-1.1.ip ...
	x-coord
	y-coord
	z-coord
	pressure
	x-velocity
	y-velocity
	z-velocity
	k
	epsilon
Done.
Writing "| gzip -2cf > FFF-1.1-2-00090.dat.gz"...
Writing temporary file C:\\Users\\LINJO\\AppData\\Local\\Temp\\flntgz-96366 ...
Done.


Performance Timer for 1796 iterations on 4 compute nodes
  Average wall-clock time per iteration:              0.092 sec
  Global reductions per iteration:                       59 ops
  Global reductions time per iteration:               0.000 sec (0.0%)
  Message count per iteration:                         1208 messages
  Data transfer per iteration:                        2.996 MB
  LE solves per iteration:                                6 solves
  LE wall-clock time per iteration:                   0.025 sec (26.8%)
  LE global solves per iteration:                         2 solves
  LE global wall-clock time per iteration:            0.000 sec (0.2%)
  LE global matrix maximum size:                        26
  AMG cycles per iteration:                           7.513 cycles
  Relaxation sweeps per iteration:                       70 sweeps
  Relaxation exchanges per iteration:                     0 exchanges
  LE early protections (stall) per iteration:           0.000 times
  LE early protections (divergence) per iteration:      0.000 times
  Time-step updates per iteration:                     0.05 updates
  Time-step wall-clock time per iteration:            0.001 sec (0.9%)

  Total wall-clock time:                            165.775 sec

